[TITLE]
Tomalom_Valve


[JUNCTIONS]
;ID              	Elev        	Demand      	Pattern         
 NODE_1337610    	152.6890    	0.000000    	                	;
 NODE_1326176    	154.7323    	0.000000    	                	;
 NODE_1335441    	157.7218    	0.000000    	                	;
 NODE_11002530   	155.1790    	0.000000    	                	;
 NODE_1318818    	156.9140    	0.002917    	                	;
 NODE_1335126    	155.6488    	0.004583    	                	;
 NODE_1315549    	157.6115    	0.000417    	                	;
 NODE_1325685    	153.4397    	0.000000    	                	;
 NODE_1317903    	155.2045    	0.000000    	                	;
 NODE_1331777    	156.7989    	0.000833    	                	;
 NODE_1324219    	157.2024    	0.002083    	                	;
 NODE_1316078    	157.8120    	0.000000    	                	;
 NODE_1318333    	154.3828    	0.001250    	                	;
 NODE_1337108    	156.1042    	0.003750    	                	;
 NODE_1333072    	156.7109    	0.000000    	                	;
 NODE_1319004    	158.8043    	0.005417    	                	;
 NODE_1319008    	158.3402    	0.000000    	                	;
 NODE_1323753    	157.5214    	0.000417    	                	;
 NODE_1314641    	166.6187    	0.000000    	                	;
 NODE_1337780    	156.1393    	0.002500    	                	;
 NODE_1323716    	158.4140    	0.000000    	                	;
 NODE_1323719    	159.0552    	0.002917    	                	;
 NODE_1316754    	152.5027    	0.000000    	                	;
 NODE_1338799    	167.1291    	0.000000    	                	;
 NODE_1337401    	156.7179    	0.002500    	                	;
 NODE_1335157    	157.3789    	0.001667    	                	;
 NODE_1315627    	158.5795    	0.003333    	                	;
 NODE_1318500    	157.4092    	0.000417    	                	;
 NODE_1326381    	156.4829    	0.000000    	                	;
 NODE_1333217    	156.3032    	0.000000    	                	;
 NODE_1334740    	157.5348    	0.000000    	                	;
 NODE_1331281    	157.2012    	0.000000    	                	;
 NODE_1325675    	149.1574    	0.000000    	                	;
 NODE_1334630    	157.4644    	0.000000    	                	;
 NODE_1326860    	158.7773    	0.014167    	                	;
 NODE_1333942    	156.5390    	0.000000    	                	;
 NODE_1331772    	156.4091    	0.004167    	                	;
 NODE_1323518    	156.2557    	0.000417    	                	;
 NODE_1316553    	146.4055    	0.000000    	                	;
 NODE_1315733    	165.4713    	0.000000    	                	;
 NODE_1337483    	153.6575    	0.000417    	                	;
 NODE_1316072    	158.1576    	0.000000    	                	;
 NODE_1318050    	155.8364    	0.000000    	                	;
 NODE_1323752    	156.9165    	0.007500    	                	;
 NODE_1334634    	156.8159    	0.000000    	                	;
 NODE_1335155    	157.0538    	0.000000    	                	;
 NODE_1326188    	150.5761    	0.004167    	                	;
 NODE_1333922    	163.2328    	0.000000    	                	;
 NODE_1315556    	157.7272    	0.000000    	                	;
 NODE_1315557    	157.6758    	0.000000    	                	;
 NODE_1334640    	155.4822    	0.000000    	                	;
 NODE_1326854    	156.9535    	0.000000    	                	;
 NODE_1325688    	148.5721    	0.000000    	                	;
 NODE_1316714    	156.2015    	0.000000    	                	;
 NODE_1324217    	157.2659    	0.000417    	                	;
 NODE_1331788    	158.0680    	0.000000    	                	;
 NODE_1323497    	158.1026    	0.000833    	                	;
 NODE_1337489    	157.6281    	0.000000    	                	;
 NODE_1321463    	157.1511    	0.001250    	                	;
 NODE_1331409    	159.6579    	0.000000    	                	;
 NODE_1331140    	158.6189    	0.000833    	                	;
 NODE_1337170    	158.7542    	0.007500    	                	;
 NODE_1327285    	154.1057    	0.000000    	                	;
 NODE_1333231    	155.4599    	0.000000    	                	;
 NODE_1318497    	157.7161    	0.000000    	                	;
 NODE_1318814    	155.8442    	0.000833    	                	;
 NODE_1317905    	154.1240    	0.000000    	                	;
 NODE_1322751    	156.8895    	0.002500    	                	;
 NODE_1338149    	153.6654    	0.000000    	                	;
 NODE_1336991    	157.6448    	0.005417    	                	;
 NODE_1337466    	156.8533    	0.000000    	                	;
 NODE_1317006    	157.5635    	0.000833    	                	;
 NODE_1334250    	158.0899    	0.000000    	                	;
 NODE_1327485    	164.8959    	0.000833    	                	;
 NODE_1317762    	152.9855    	0.000000    	                	;
 NODE_1315535    	157.7877    	0.000417    	                	;
 NODE_1334228    	158.0928    	0.000000    	                	;
 NODE_1325701    	154.9675    	0.000000    	                	;
 NODE_1333718    	157.4263    	0.000417    	                	;
 NODE_1317580    	156.6498    	0.000000    	                	;
 NODE_1331775    	156.6775    	0.000000    	                	;
 NODE_1331784    	157.6236    	0.000833    	                	;
 NODE_1324224    	151.4830    	0.000000    	                	;
 NODE_1313708    	155.2083    	0.008750    	                	;
 NODE_1316073    	158.3165    	0.000000    	                	;
 NODE_1322775    	154.2883    	0.002083    	                	;
 NODE_1325705    	156.4557    	0.000000    	                	;
 NODE_1331781    	157.1743    	0.000417    	                	;
 NODE_1315634    	155.6978    	0.000000    	                	;
 NODE_1320906    	157.3854    	0.000833    	                	;
 NODE_1324189    	156.7608    	0.005417    	                	;
 NODE_1316221    	158.0669    	0.010417    	                	;
 NODE_1324191    	157.0210    	0.000833    	                	;
 NODE_1335148    	156.5902    	0.001250    	                	;
 NODE_1326194    	149.2192    	0.000000    	                	;
 NODE_1323499    	158.5779    	0.001667    	                	;
 NODE_1337490    	156.5385    	0.000000    	                	;
 NODE_1333070    	156.2678    	0.005000    	                	;
 NODE_1333529    	157.0220    	0.005000    	                	;
 NODE_1317572    	157.7258    	0.000000    	                	;
 NODE_1333430    	155.1763    	0.002083    	                	;
 NODE_1335754    	156.0756    	0.000417    	                	;
 NODE_1333943    	156.7128    	0.000417    	                	;
 NODE_1337467    	155.9510    	0.002083    	                	;
 NODE_1337476    	156.1669    	0.000833    	                	;
 NODE_1333226    	157.3822    	0.000000    	                	;
 NODE_1334232    	158.6809    	0.000000    	                	;
 NODE_1322251    	164.1931    	0.000000    	                	;
 NODE_1337479    	152.5915    	0.000000    	                	;
 NODE_1326847    	155.2587    	0.004167    	                	;
 NODE_1331771    	155.6108    	0.000000    	                	;
 NODE_1334241    	159.3031    	0.004167    	                	;
 NODE_1338968    	163.6236    	0.007083    	                	;
 NODE_1315718    	158.2217    	0.004583    	                	;
 NODE_1324202    	156.9657    	0.000000    	                	;
 NODE_1333427    	154.3374    	0.000000    	                	;
 NODE_1338239    	156.6839    	0.000000    	                	;
 NODE_1316263    	158.3257    	0.005000    	                	;
 NODE_1326853    	157.0274    	0.000833    	                	;
 NODE_1333729    	156.1206    	0.003333    	                	;
 NODE_1333737    	157.0431    	0.004167    	                	;
 NODE_1336795    	157.6304    	0.000417    	                	;
 NODE_1325704    	156.8630    	0.000000    	                	;
 NODE_1318504    	155.4661    	0.000000    	                	;
 NODE_1326180    	152.6361    	0.008750    	                	;
 NODE_1333208    	156.3155    	0.008750    	                	;
 NODE_1331801    	157.2521    	0.000417    	                	;
 NODE_1333747    	157.1896    	0.002917    	                	;
 NODE_1323506    	157.3128    	0.000000    	                	;
 NODE_1333074    	157.0389    	0.000000    	                	;
 NODE_1323713    	158.2952    	0.003333    	                	;
 NODE_1334242    	157.6212    	0.000000    	                	;
 NODE_1319002    	158.4331    	0.003333    	                	;
 NODE_1336785    	164.5691    	0.002917    	                	;
 NODE_1336178    	157.5461    	0.001250    	                	;
 NODE_1315534    	158.2218    	0.000000    	                	;
 NODE_1321256    	158.4520    	0.008750    	                	;
 NODE_1337486    	157.4678    	0.003333    	                	;
 NODE_1337444    	156.9792    	0.000833    	                	;
 NODE_1318495    	157.6317    	0.000000    	                	;
 NODE_1335158    	157.4309    	0.001250    	                	;
 NODE_1334252    	157.8458    	0.000417    	                	;
 NODE_1335133    	157.3185    	0.002500    	                	;
 NODE_1335146    	156.7918    	0.003333    	                	;
 NODE_1336802    	158.1324    	0.000000    	                	;
 NODE_1337475    	157.6941    	0.005000    	                	;
 NODE_1324228    	158.8390    	0.002083    	                	;
 NODE_1315748    	156.6974    	0.000000    	                	;
 NODE_1324220    	148.6050    	0.006667    	                	;
 NODE_1333428    	155.5744    	0.000000    	                	;
 NODE_1325682    	151.9772    	0.000000    	                	;
 NODE_1334643    	157.3376    	0.000000    	                	;
 NODE_1318813    	156.7427    	0.000000    	                	;
 NODE_1337471    	157.4546    	0.000000    	                	;
 NODE_1325698    	146.0718    	0.003750    	                	;
 NODE_1316079    	157.4685    	0.001250    	                	;
 NODE_1334234    	158.5186    	0.000000    	                	;
 NODE_1318220    	155.6939    	0.000000    	                	;
 NODE_1316068    	157.0639    	0.000833    	                	;
 NODE_1326378    	154.7143    	0.000000    	                	;
 NODE_1338045    	158.8239    	0.001250    	                	;
 NODE_1318332    	153.6939    	0.002083    	                	;
 NODE_1316715    	155.4675    	0.000000    	                	;
 NODE_1322976    	157.9144    	0.000000    	                	;
 NODE_1318817    	156.6489    	0.002500    	                	;
 NODE_1315548    	157.3839    	0.001250    	                	;
 NODE_1335149    	156.3069    	0.002917    	                	;
 NODE_1316536    	149.2787    	0.000000    	                	;
 NODE_1325699    	146.2719    	0.000000    	                	;
 NODE_1333743    	157.6344    	0.001667    	                	;
 NODE_1317906    	154.5949    	0.000000    	                	;
 NODE_1326195    	153.5326    	0.001667    	                	;
 NODE_1316556    	162.5451    	0.002083    	                	;
 NODE_1334237    	158.6809    	0.002500    	                	;
 NODE_1333752    	158.3494    	0.000833    	                	;
 NODE_1336022    	149.3089    	0.000000    	                	;
 NODE_1316742    	156.6381    	0.000000    	                	;
 NODE_1318499    	156.3767    	0.002500    	                	;
 NODE_1335433    	159.0884    	0.000000    	                	;
 NODE_1316064    	156.5699    	0.004583    	                	;
 NODE_1331787    	158.0502    	0.002500    	                	;
 NODE_1332498    	155.7366    	0.000000    	                	;
 NODE_1317571    	165.1338    	0.000000    	                	;
 NODE_1327506    	156.1404    	0.000000    	                	;
 NODE_1319011    	152.4815    	0.001667    	                	;
 NODE_1333259    	153.0832    	0.012917    	                	;
 NODE_1325680    	149.3148    	0.000000    	                	;
 NODE_1324209    	154.8513    	0.001667    	                	;
 NODE_1316747    	156.9064    	0.000000    	                	;
 NODE_1315747    	157.3885    	0.002500    	                	;
 NODE_1313712    	157.2956    	0.003750    	                	;
 NODE_1333950    	154.9968    	0.000417    	                	;
 NODE_1326846    	156.8813    	0.005833    	                	;
 NODE_1318335    	158.1140    	0.000000    	                	;
 NODE_1323710    	158.7285    	0.000000    	                	;
 NODE_1315544    	156.0784    	0.000000    	                	;
 NODE_1332010    	155.7518    	0.003750    	                	;
 NODE_1337469    	155.3094    	0.000417    	                	;
 NODE_1332491    	155.1989    	0.003750    	                	;
 NODE_1336793    	155.9607    	0.002500    	                	;
 NODE_1322247    	156.8737    	0.000000    	                	;
 NODE_1324002    	163.5166    	0.000000    	                	;
 NODE_1333435    	157.7771    	0.000000    	                	;
 NODE_1316219    	157.1508    	0.002917    	                	;
 NODE_1334231    	158.9807    	0.000000    	                	;
 NODE_1315547    	156.8731    	0.000833    	                	;
 NODE_1315558    	157.1944    	0.004167    	                	;
 NODE_1318506    	157.6165    	0.003333    	                	;
 NODE_1325695    	148.3845    	0.001250    	                	;
 NODE_1316532    	154.9021    	0.000000    	                	;
 NODE_1334633    	157.5672    	0.000000    	                	;
 NODE_1325691    	146.2868    	0.000000    	                	;
 NODE_1337478    	157.1014    	0.000000    	                	;
 NODE_1335145    	156.9331    	0.000000    	                	;
 NODE_1316071    	157.9774    	0.003750    	                	;
 NODE_1332003    	157.7244    	0.000000    	                	;
 NODE_1326380    	155.4742    	0.000000    	                	;
 NODE_1333214    	156.8285    	0.003333    	                	;
 NODE_1330689    	157.9976    	0.011250    	                	;
 NODE_1338157    	165.3577    	0.000000    	                	;
 NODE_1324212    	152.0647    	0.002083    	                	;
 NODE_1332005    	157.4104    	0.000000    	                	;
 NODE_1324232    	157.1513    	0.000000    	                	;
 NODE_1330801    	148.0041    	0.003750    	                	;
 NODE_1318496    	158.5193    	0.000000    	                	;
 NODE_1331794    	158.2835    	0.002500    	                	;
 NODE_1323507    	156.7919    	0.000000    	                	;
 NODE_1336994    	156.9830    	0.003750    	                	;
 NODE_1336993    	157.9995    	0.001250    	                	;
 NODE_1337395    	148.0013    	0.000000    	                	;
 NODE_1337584    	160.1766    	0.000000    	                	;
 NODE_1337659    	157.8947    	0.006667    	                	;
 NODE_1324188    	157.1518    	0.000000    	                	;
 NODE_1337488    	158.1767    	0.000417    	                	;
 NODE_1336799    	157.0271    	0.000417    	                	;
 NODE_1319001    	158.7252    	0.000417    	                	;
 NODE_1333732    	157.9680    	0.000000    	                	;
 NODE_1333215    	156.9708    	0.006250    	                	;
 NODE_1315734    	164.1067    	0.017500    	                	;
 NODE_1333433    	153.7600    	0.000000    	                	;
 NODE_5810117    	153.9129    	0.000833    	                	;
 NODE_1324185    	157.2755    	0.002500    	                	;
 NODE_1334642    	156.9441    	0.000000    	                	;
 NODE_1320332    	146.1270    	0.000000    	                	;
 NODE_1313029    	162.0734    	0.002500    	                	;
 NODE_1316223    	157.0453    	0.002917    	                	;
 NODE_1333929    	158.9545    	0.000000    	                	;
 NODE_1338173    	156.7161    	0.005417    	                	;
 NODE_1333730    	156.6565    	0.000417    	                	;
 NODE_1336803    	159.4681    	0.000000    	                	;
 NODE_1338788    	155.4623    	0.003750    	                	;
 NODE_1335161    	157.3957    	0.000000    	                	;
 NODE_1335163    	157.0174    	0.000000    	                	;
 NODE_1331770    	156.5733    	0.003750    	                	;
 NODE_1326861    	158.5426    	0.017500    	                	;
 NODE_1317584    	155.6528    	0.007083    	                	;
 NODE_1326193    	149.6049    	0.000000    	                	;
 NODE_1326197    	153.8066    	0.000000    	                	;
 NODE_1315629    	157.2919    	0.000000    	                	;
 NODE_1315631    	157.1860    	0.000000    	                	;
 NODE_1333220    	156.2861    	0.000000    	                	;
 NODE_1323513    	155.9271    	0.000000    	                	;
 NODE_1333224    	157.2848    	0.004583    	                	;
 NODE_1316749    	157.6473    	0.000000    	                	;
 NODE_1316235    	158.9023    	0.000417    	                	;
 NODE_1334229    	158.2073    	0.001667    	                	;
 NODE_1319005    	158.8201    	0.000000    	                	;
 NODE_1323734    	155.5257    	0.000000    	                	;
 NODE_1334254    	157.6364    	0.000833    	                	;
 NODE_1327487    	164.8888    	0.000000    	                	;
 NODE_1333429    	155.5087    	0.000000    	                	;
 NODE_1316753    	155.5176    	0.000000    	                	;
 NODE_1324182    	157.1989    	0.002500    	                	;
 NODE_1316755    	153.9705    	0.001667    	                	;
 NODE_1333946    	156.5612    	0.000000    	                	;
 NODE_1318325    	152.8719    	0.000000    	                	;
 NODE_1333746    	157.7449    	0.000000    	                	;
 NODE_1334245    	155.8024    	0.007917    	                	;
 NODE_1324000    	165.2835    	0.000000    	                	;
 NODE_1324181    	157.6199    	0.000417    	                	;
 NODE_1334639    	154.9926    	0.000000    	                	;
 NODE_1332492    	155.2529    	0.002083    	                	;
 NODE_1334434    	157.5460    	0.000000    	                	;
 NODE_1333928    	157.3494    	0.000000    	                	;
 NODE_1315553    	156.4555    	0.000417    	                	;
 NODE_1316069    	157.2979    	0.000000    	                	;
 NODE_1326185    	152.2856    	0.000000    	                	;
 NODE_1332008    	156.3720    	0.000000    	                	;
 NODE_1316552    	154.9186    	0.005833    	                	;
 NODE_1315751    	163.4055    	0.007917    	                	;
 NODE_1318482    	157.9715    	0.000000    	                	;
 NODE_1330802    	157.5100    	0.002917    	                	;
 NODE_1316217    	157.3277    	0.005000    	                	;
 NODE_1324183    	157.0760    	0.002500    	                	;
 NODE_1319006    	158.4297    	0.000000    	                	;
 NODE_1320331    	146.1566    	0.003333    	                	;
 NODE_1338154    	158.9602    	0.000000    	                	;
 NODE_1317576    	158.5761    	0.000000    	                	;
 NODE_1318502    	157.4806    	0.000417    	                	;
 NODE_1325694    	148.3860    	0.000000    	                	;
 NODE_1326181    	152.4247    	0.000000    	                	;
 NODE_1326191    	150.1248    	0.001250    	                	;
 NODE_1335984    	155.2166    	0.001667    	                	;
 NODE_1333227    	157.5782    	0.004583    	                	;
 NODE_1322770    	158.9548    	0.000417    	                	;
 NODE_1333921    	157.8460    	0.000000    	                	;
 NODE_1323496    	157.7428    	0.008333    	                	;
 NODE_1317007    	154.3898    	0.007083    	                	;
 NODE_1334926    	159.0031    	0.003333    	                	;
 NODE_1328049    	153.5716    	0.000000    	                	;
 NODE_5810261    	156.7072    	0.001250    	                	;
 NODE_1318328    	151.8270    	0.000000    	                	;
 NODE_1336779    	151.1953    	0.000000    	                	;
 NODE_1323511    	157.0832    	0.000417    	                	;
 NODE_1333260    	154.0587    	0.000000    	                	;
 NODE_1327949    	158.5857    	0.003333    	                	;
 NODE_1331235    	154.0458    	0.000000    	                	;
 NODE_1326869    	157.8587    	0.004167    	                	;
 NODE_1322237    	154.9464    	0.000000    	                	;
 NODE_1315628    	157.4738    	0.000000    	                	;
 NODE_1316548    	156.8459    	0.000833    	                	;
 NODE_1333209    	156.5660    	0.002083    	                	;
 NODE_1318218    	158.2642    	0.000000    	                	;
 NODE_1315545    	155.8770    	0.002500    	                	;
 NODE_1333736    	157.9161    	0.000417    	                	;
 NODE_1316066    	156.5644    	0.000000    	                	;
 NODE_1334427    	155.6004    	0.000000    	                	;
 NODE_1334236    	159.2918    	0.000417    	                	;
 NODE_1317757    	154.0779    	0.000417    	                	;
 NODE_1335429    	157.2412    	0.003333    	                	;
 NODE_1337472    	155.4023    	0.000000    	                	;
 NODE_1319007    	158.9800    	0.003333    	                	;
 NODE_1317577    	156.5180    	0.000000    	                	;
 NODE_1325697    	147.6820    	0.000000    	                	;
 NODE_1326871    	157.8100    	0.005417    	                	;
 NODE_1336804    	159.0168    	0.002917    	                	;
 NODE_1333753    	158.6764    	0.004583    	                	;
 NODE_1311885    	164.3255    	0.000000    	                	;
 NODE_1333926    	157.2283    	0.000000    	                	;
 NODE_1335128    	156.4866    	0.000000    	                	;
 NODE_1333947    	156.1204    	0.000000    	                	;
 NODE_1335129    	156.8026    	0.005000    	                	;
 NODE_1336792    	155.3779    	0.000833    	                	;
 NODE_1334638    	152.7962    	0.000000    	                	;
 NODE_1316530    	150.0427    	0.000000    	                	;
 NODE_1324207    	153.9142    	0.000000    	                	;
 NODE_1316226    	154.6388    	0.003750    	                	;
 NODE_1315551    	157.7504    	0.003750    	                	;
 NODE_1318823    	157.5119    	0.003333    	                	;
 NODE_1326172    	154.2641    	0.000000    	                	;
 NODE_1337399    	152.8704    	0.000000    	                	;
 NODE_1333219    	156.2603    	0.000000    	                	;
 NODE_1316751    	156.1460    	0.000000    	                	;
 NODE_1324192    	156.1320    	0.000417    	                	;
 NODE_1335439    	155.3787    	0.000000    	                	;
 NODE_1336448    	156.0162    	0.000417    	                	;
 NODE_1330743    	153.5298    	0.000000    	                	;
 NODE_1316227    	155.4295    	0.000000    	                	;
 NODE_1334257    	157.5111    	0.004583    	                	;
 NODE_1324201    	156.8740    	0.000417    	                	;
 NODE_11088748   	162.0040    	0.005000    	                	;
 NODE_1324196    	157.7543    	0.000000    	                	;
 NODE_1325706    	155.8085    	0.004167    	                	;
 NODE_1335436    	158.0165    	0.000000    	                	;
 NODE_1332507    	152.8241    	0.000000    	                	;
 NODE_1334255    	157.6101    	0.002500    	                	;
 NODE_1326182    	152.4162    	0.000000    	                	;
 NODE_1315750    	155.4836    	0.013333    	                	;
 NODE_1327287    	156.4799    	0.006667    	                	;
 NODE_4482178    	148.9618    	0.000000    	                	;
 NODE_1316745    	156.1211    	0.004583    	                	;
 NODE_1331796    	157.9991    	0.001667    	                	;
 NODE_1321442    	157.3544    	0.000000    	                	;
 NODE_1330742    	156.3613    	0.000833    	                	;
 NODE_1334432    	151.0519    	0.000000    	                	;
 NODE_1318216    	155.3442    	0.000417    	                	;
 NODE_1335442    	158.4549    	0.000000    	                	;
 NODE_1316222    	152.3032    	0.000000    	                	;
 NODE_1333931    	158.5236    	0.000833    	                	;
 NODE_1333937    	157.8696    	0.002500    	                	;
 NODE_1336782    	155.2315    	0.000000    	                	;
 NODE_1316067    	156.7999    	0.000000    	                	;
 NODE_1321446    	157.4332    	0.000833    	                	;
 NODE_1327292    	157.1974    	0.000000    	                	;
 NODE_1316077    	157.0445    	0.003333    	                	;
 NODE_1326196    	153.4436    	0.006667    	                	;
 NODE_1317001    	155.4962    	0.003750    	                	;
 NODE_1332495    	155.6480    	0.001667    	                	;
 NODE_1332504    	166.3763    	0.005000    	                	;
 NODE_1334743    	157.7276    	0.004167    	                	;
 NODE_1324221    	154.6356    	0.000000    	                	;
 NODE_1318508    	158.0491    	0.001667    	                	;
 NODE_1318509    	158.8433    	0.000417    	                	;
 NODE_1311912    	157.3788    	0.005833    	                	;
 NODE_1316218    	157.2449    	0.000000    	                	;
 NODE_1317156    	158.8121    	0.000417    	                	;
 NODE_1326868    	156.3233    	0.001250    	                	;
 NODE_1335788    	153.3950    	0.000417    	                	;
 NODE_1330877    	158.0158    	0.003333    	                	;
 NODE_1334261    	157.7602    	0.002083    	                	;
 NODE_1324194    	156.3005    	0.002500    	                	;
 NODE_1316549    	155.9863    	0.002083    	                	;
 NODE_1334222    	158.6554    	0.002917    	                	;
 NODE_1334226    	158.3461    	0.000000    	                	;
 NODE_1333930    	158.7234    	0.000000    	                	;
 NODE_1316228    	151.6038    	0.002083    	                	;
 NODE_1333951    	155.2668    	0.008333    	                	;
 NODE_1334744    	156.4850    	0.009167    	                	;
 NODE_1324231    	154.5804    	0.000000    	                	;
 NODE_1334912    	155.5841    	0.000000    	                	;
 NODE_1336805    	157.7430    	0.000000    	                	;
 NODE_1338153    	157.9178    	0.000417    	                	;
 NODE_1326857    	157.4462    	0.005000    	                	;
 NODE_1326867    	156.6826    	0.000000    	                	;
 NODE_1326855    	156.8593    	0.002500    	                	;
 NODE_1333948    	156.4014    	0.000000    	                	;
 NODE_1326192    	150.1325    	0.014167    	                	;
 NODE_1334235    	158.3072    	0.002917    	                	;
 NODE_1318477    	162.3938    	0.000000    	                	;
 NODE_1333750    	157.7990    	0.003333    	                	;
 NODE_1313898    	156.4231    	0.002917    	                	;
 NODE_1333525    	155.8655    	0.000000    	                	;
 NODE_1316534    	150.2405    	0.000000    	                	;
 NODE_1326173    	154.3671    	0.004167    	                	;
 NODE_1326184    	152.2869    	0.000000    	                	;
 NODE_1318961    	156.9179    	0.000000    	                	;
 NODE_1332502    	155.9926    	0.003750    	                	;
 NODE_1315632    	157.0154    	0.000417    	                	;
 NODE_1333225    	157.5177    	0.000000    	                	;
 NODE_1315572    	156.7285    	0.000000    	                	;
 NODE_1334251    	157.9069    	0.000000    	                	;
 NODE_1318197    	154.7227    	0.000000    	                	;
 NODE_1335144    	156.9640    	0.003750    	                	;
 NODE_1316075    	157.9179    	0.000417    	                	;
 NODE_1333923    	157.3823    	0.000000    	                	;
 NODE_1326386    	162.8531    	0.000000    	                	;
 NODE_1317574    	158.9307    	0.000417    	                	;
 NODE_1335141    	157.9399    	0.002083    	                	;
 NODE_1324215    	157.3878    	0.003750    	                	;
 NODE_1326171    	154.1121    	0.000000    	                	;
 NODE_1331792    	158.4116    	0.000000    	                	;
 NODE_1318329    	150.6360    	0.000000    	                	;
 NODE_1332493    	155.3767    	0.000000    	                	;
 NODE_1323505    	157.4024    	0.002500    	                	;
 NODE_1316746    	156.1149    	0.004167    	                	;
 NODE_1333734    	158.6707    	0.002917    	                	;
 NODE_1318326    	152.4327    	0.000000    	                	;
 NODE_1320046    	157.3626    	0.000417    	                	;
 NODE_1324193    	156.1625    	0.000000    	                	;
 NODE_1333739    	156.4524    	0.004583    	                	;
 NODE_1336780    	153.4029    	0.000000    	                	;
 NODE_1322755    	156.4157    	0.000000    	                	;
 NODE_1336783    	155.5004    	0.000000    	                	;
 NODE_1332306    	155.2608    	0.002917    	                	;
 NODE_1332499    	155.8182    	0.000000    	                	;
 NODE_1333222    	157.3726    	0.001250    	                	;
 NODE_1338790    	159.2983    	0.003750    	                	;
 NODE_1333528    	156.7069    	0.001250    	                	;
 NODE_1324187    	157.0414    	0.000000    	                	;
 NODE_1338164    	157.4193    	0.000000    	                	;
 NODE_1335131    	157.0182    	0.004583    	                	;
 NODE_1331782    	157.3325    	0.002917    	                	;
 NODE_1333211    	156.4611    	0.000000    	                	;
 NODE_1334637    	154.1988    	0.000000    	                	;
 NODE_1337106    	155.0846    	0.000000    	                	;
 NODE_1333727    	155.9766    	0.002083    	                	;
 NODE_1324203    	157.0632    	0.010417    	                	;
 NODE_1332510    	158.9905    	0.006250    	                	;
 NODE_1315530    	156.5242    	0.000000    	                	;
 NODE_1322772    	157.6505    	0.000833    	                	;
 NODE_1315714    	162.1759    	0.000000    	                	;
 NODE_1326607    	153.1308    	0.004583    	                	;
 NODE_1323718    	158.8098    	0.004167    	                	;
 NODE_1316220    	156.4481    	0.007500    	                	;