[TITLE]
../../Networks/Sopron_2021/BUK-BBGCRV-1-600-input.inp


[JUNCTIONS]
;ID              	Elev        	Demand      	Pattern         
 NODE_4730950    	161.0790    	0.000000    	                	;
 NODE_4730685    	158.8150    	0.000000    	                	;
 NODE_6452288    	165.3030    	0.000000    	                	;
 NODE_6452224    	164.2500    	0.005509    	                	;
 NODE_4729103    	175.5640    	0.009444    	                	;
 NODE_4729065    	170.1980    	0.007083    	                	;
 NODE_4728804    	175.3610    	0.000000    	                	;
 NODE_4728737    	175.7650    	0.003935    	                	;
 NODE_4729417    	177.3170    	0.010231    	                	;
 NODE_70856003   	177.8000    	0.009444    	                	;
 NODE_4728389    	177.5540    	0.023611    	                	;
 NODE_4729759    	176.8500    	0.000000    	                	;
 NODE_61288935   	171.5000    	0.008658    	                	;
 NODE_4729011    	172.2020    	0.020463    	                	;
 NODE_4728339    	176.1530    	0.000787    	                	;
 NODE_79610238   	176.7400    	0.000000    	                	;
 NODE_4728244    	170.0580    	0.000000    	                	;
 NODE_9931213    	174.1740    	0.017315    	                	;
 NODE_9931081    	173.5890    	0.009444    	                	;
 NODE_9930815    	176.3600    	0.006296    	                	;
 NODE_9930691    	176.3890    	0.001574    	                	;
 NODE_9930304    	163.7180    	0.006296    	                	;
 NODE_9930084    	163.6790    	0.000000    	                	;
 NODE_9440175    	177.2610    	0.003148    	                	;
 NODE_4728608    	171.7850    	0.003935    	                	;
 NODE_4728603    	171.7210    	0.002361    	                	;
 NODE_4728708    	171.6330    	0.000787    	                	;
 NODE_4728707    	171.6790    	0.006296    	                	;
 NODE_4729120    	171.3400    	0.015741    	                	;
 NODE_4729107    	171.6230    	0.003935    	                	;
 NODE_4728855    	171.4640    	0.005509    	                	;
 NODE_6452423    	166.3380    	0.000000    	                	;
 NODE_6452418    	165.2040    	0.000000    	                	;
 NODE_6452352    	165.4880    	0.002361    	                	;
 NODE_6452349    	165.3450    	0.005509    	                	;
 NODE_6452325    	165.7750    	0.000000    	                	;
 NODE_6452324    	165.5900    	0.000000    	                	;
 NODE_6452307    	165.2050    	0.000000    	                	;
 NODE_6452304    	164.9770    	0.007083    	                	;
 NODE_6452262    	163.5090    	0.021250    	                	;
 NODE_6452243    	163.5540    	0.005509    	                	;
 NODE_6452202    	163.8860    	0.011019    	                	;
 NODE_6452186    	163.7050    	0.001574    	                	;
 NODE_6452166    	162.6030    	0.010231    	                	;
 NODE_6452143    	164.5040    	0.002361    	                	;
 NODE_6452141    	163.9430    	0.000787    	                	;
 NODE_6452114    	163.4070    	0.000000    	                	;
 NODE_4729556    	173.4300    	0.019676    	                	;
 NODE_4729544    	170.2930    	0.008658    	                	;
 NODE_4729528    	174.9030    	0.003148    	                	;
 NODE_4729521    	174.6940    	0.000787    	                	;
 NODE_4729516    	175.3050    	0.005509    	                	;
 NODE_4729479    	171.2140    	0.006296    	                	;
 NODE_4729445    	171.3600    	0.002361    	                	;
 NODE_4729427    	178.3070    	0.006296    	                	;
 NODE_6452075    	165.1530    	0.002361    	                	;
 NODE_6452054    	163.5180    	0.006296    	                	;
 NODE_4729390    	176.8410    	0.039352    	                	;
 NODE_4729370    	173.6570    	0.011806    	                	;
 NODE_4729312    	174.5400    	0.005509    	                	;
 NODE_4729311    	174.8730    	0.002361    	                	;
 NODE_4729640    	174.2410    	0.019676    	                	;
 NODE_4730937    	166.6110    	0.004722    	                	;
 NODE_4730934    	164.7900    	0.000000    	                	;
 NODE_4730930    	165.0680    	0.000000    	                	;
 NODE_4730919    	165.7630    	0.000000    	                	;
 NODE_4730913    	165.2780    	0.015741    	                	;
 NODE_4730911    	165.5230    	0.000000    	                	;
 NODE_4730897    	164.6660    	0.000000    	                	;
 NODE_4730972    	166.2320    	0.008658    	                	;
 NODE_4730881    	166.0260    	0.000787    	                	;
 NODE_4730878    	163.0610    	0.006296    	                	;
 NODE_4730875    	164.7200    	0.000000    	                	;
 NODE_4730869    	161.1960    	0.018102    	                	;
 NODE_4728775    	172.4310    	0.010231    	                	;
 NODE_4728770    	173.8330    	0.021250    	                	;
 NODE_4728764    	172.0600    	0.006296    	                	;
 NODE_4728417    	172.1710    	0.003148    	                	;
 NODE_4728416    	172.5300    	0.000000    	                	;
 NODE_4728415    	171.9790    	0.018102    	                	;
 NODE_4728321    	177.8060    	0.012592    	                	;
 NODE_4729225    	177.6140    	0.011806    	                	;
 NODE_4729203    	177.3510    	0.000000    	                	;
 NODE_4729196    	173.4400    	0.002361    	                	;
 NODE_4729092    	176.6540    	0.007083    	                	;
 NODE_4730307    	163.2090    	0.000000    	                	;
 NODE_4730197    	166.1340    	0.011019    	                	;
 NODE_4730190    	170.6230    	0.006296    	                	;
 NODE_4730159    	165.2040    	0.000000    	                	;
 NODE_4730357    	165.1110    	0.000000    	                	;
 NODE_4730327    	167.0380    	0.006296    	                	;
 NODE_4728993    	171.2830    	0.007083    	                	;
 NODE_4728927    	172.7220    	0.000787    	                	;
 NODE_4728911    	171.0390    	0.003148    	                	;
 NODE_4728581    	171.5670    	0.007083    	                	;
 NODE_4728568    	170.8690    	0.004722    	                	;
 NODE_4728506    	170.7240    	0.000000    	                	;
 NODE_4728394    	171.4880    	0.003148    	                	;
 NODE_4728392    	170.7640    	0.000787    	                	;
 NODE_4728386    	173.8920    	0.000000    	                	;
 NODE_4729155    	173.8170    	0.014167    	                	;
 NODE_4730234    	162.7640    	0.000000    	                	;
 NODE_4728160    	174.4000    	0.000787    	                	;
 NODE_4728142    	174.6350    	0.000000    	                	;
 NODE_4729177    	172.7260    	0.000000    	                	;
 NODE_4729909    	170.8470    	0.000000    	                	;
 NODE_4729153    	174.7380    	0.000000    	                	;
 NODE_4729061    	171.8250    	0.000000    	                	;
 NODE_4729057    	171.3410    	0.018889    	                	;
 NODE_4729046    	171.6170    	0.000000    	                	;
 NODE_4729042    	171.5930    	0.000000    	                	;
 NODE_4728969    	174.0020    	0.007870    	                	;
 NODE_4728661    	174.1760    	0.001574    	                	;
 NODE_4729729    	177.6850    	0.000000    	                	;
 NODE_4728634    	174.0170    	0.007870    	                	;
 NODE_4728520    	171.3570    	0.000000    	                	;
 NODE_4728464    	171.1290    	0.000000    	                	;
 NODE_4729784    	174.9030    	1.769259    	                	;
 NODE_4728236    	172.3350    	0.013380    	                	;
 NODE_4728232    	173.1120    	0.000000    	                	;
 NODE_4729270    	170.2790    	0.005509    	                	;
 NODE_4730562    	158.3850    	0.009444    	                	;
 NODE_4730636    	158.2210    	0.003148    	                	;
 NODE_4730648    	158.4080    	0.010231    	                	;
 NODE_4730653    	158.3550    	0.000000    	                	;
 NODE_4730678    	158.9010    	0.002361    	                	;
 NODE_4729829    	177.9000    	0.000000    	                	;
 NODE_4729433    	177.0720    	0.014954    	                	;
 NODE_4729284    	177.1420    	0.025185    	                	;
 NODE_4728741    	175.7430    	0.012592    	                	;
 NODE_64366165   	176.7800    	0.000000    	                	;
 NODE_90198227   	170.8310    	0.000000    	                	;
 NODE_4729164    	169.2010    	0.000000    	                	;
 NODE_4729176    	170.2580    	0.000000    	                	;
 NODE_4730669    	158.3200    	0.006296    	                	;
 NODE_4728811    	175.0970    	0.013380    	                	;
 NODE_4730657    	158.6040    	0.000000    	                	;
 NODE_6452219    	163.8170    	0.000787    	                	;
 NODE_4729539    	170.3130    	0.007083    	                	;
 NODE_4729537    	170.1910    	0.006296    	                	;
 NODE_4729003    	175.4260    	0.002361    	                	;
 NODE_4728987    	174.6470    	0.004722    	                	;
 NODE_4728739    	175.7990    	0.017315    	                	;
 NODE_34421240   	174.4300    	0.000000    	                	;
 NODE_18427616   	173.3000    	0.018102    	                	;
 NODE_70855344   	178.3200    	0.005509    	                	;
 NODE_70856079   	177.6800    	0.022037    	                	;
 NODE_70856123   	177.9000    	0.000000    	                	;
 NODE_70856305   	177.4000    	0.003935    	                	;
 NODE_4728364    	177.5250    	0.050370    	                	;
 NODE_66731750   	172.0800    	0.000000    	                	;
 NODE_61288766   	171.5300    	0.012592    	                	;
 NODE_64365337   	175.3540    	0.003935    	                	;
 NODE_64365407   	175.7920    	0.024398    	                	;
 NODE_4728833    	170.5040    	0.000000    	                	;
 NODE_9931241    	173.8710    	0.012592    	                	;
 NODE_4728381    	176.6410    	0.002361    	                	;
 NODE_78563203   	178.7200    	0.107824    	                	;
 NODE_4728427    	174.5840    	0.011019    	                	;
 NODE_4728690    	174.6210    	0.009444    	                	;
 NODE_4728851    	174.1240    	0.010231    	                	;
 NODE_9931227    	173.8410    	0.009444    	                	;
 NODE_9931193    	172.6730    	0.014167    	                	;
 NODE_9930711    	170.5420    	0.022037    	                	;
 NODE_9930350    	165.1710    	0.000787    	                	;
 NODE_9440315    	171.0320    	0.007083    	                	;
 NODE_9440231    	170.8470    	0.024398    	                	;
 NODE_9440133    	177.3770    	0.005509    	                	;
 NODE_9101730    	176.1730    	0.018889    	                	;
 NODE_4728610    	171.8300    	0.001574    	                	;
 NODE_4728713    	172.9030    	0.008658    	                	;
 NODE_4728712    	172.7180    	0.000000    	                	;
 NODE_4728701    	175.3550    	0.014167    	                	;
 NODE_4729132    	175.5770    	0.006296    	                	;
 NODE_6452415    	165.7820    	0.000000    	                	;
 NODE_6452402    	163.1220    	0.000000    	                	;
 NODE_6452383    	165.1790    	0.072407    	                	;
 NODE_6452347    	165.1930    	0.003935    	                	;
 NODE_6452329    	165.7870    	0.005509    	                	;
 NODE_6452323    	165.7090    	0.002361    	                	;
 NODE_6452218    	163.9420    	0.000787    	                	;
 NODE_6452217    	164.0120    	0.001574    	                	;
 NODE_6452213    	164.0270    	0.000787    	                	;
 NODE_6452211    	164.5160    	0.007870    	                	;
 NODE_6452177    	164.0410    	0.007870    	                	;
 NODE_6452155    	164.1440    	0.005509    	                	;
 NODE_6452147    	163.2140    	0.006296    	                	;
 NODE_6452133    	162.2450    	0.000000    	                	;
 NODE_6452129    	164.3210    	0.011806    	                	;
 NODE_6452112    	163.3070    	0.000000    	                	;
 NODE_4729575    	174.1780    	0.003935    	                	;
 NODE_4729574    	174.0100    	0.009444    	                	;
 NODE_4729560    	173.2220    	0.007083    	                	;
 NODE_4729527    	174.8150    	0.011806    	                	;
 NODE_4729525    	174.8870    	0.003148    	                	;
 NODE_4729505    	175.4070    	0.005509    	                	;
 NODE_4729480    	171.0380    	0.001574    	                	;
 NODE_4729448    	171.5880    	0.003935    	                	;
 NODE_4729428    	176.8340    	0.001574    	                	;
 NODE_6452087    	164.8850    	0.012592    	                	;
 NODE_6452077    	165.5320    	0.000000    	                	;
 NODE_6452074    	165.5410    	0.001574    	                	;
 NODE_4729374    	173.7770    	0.014167    	                	;
 NODE_4729360    	177.5330    	0.008658    	                	;
 NODE_4729335    	171.8800    	0.002361    	                	;
 NODE_4729637    	173.7610    	0.020463    	                	;
 NODE_4729617    	175.2050    	0.025185    	                	;
 NODE_4730946    	166.4660    	0.001574    	                	;
 NODE_4730945    	166.4030    	0.003148    	                	;
 NODE_4730936    	166.4140    	0.000787    	                	;
 NODE_4730931    	165.4650    	0.000000    	                	;
 NODE_4730929    	164.7520    	0.006296    	                	;
 NODE_4730917    	165.1450    	0.007870    	                	;
 NODE_4730901    	164.7760    	0.000787    	                	;
 NODE_4730899    	164.2890    	0.022824    	                	;
 NODE_4730891    	165.4410    	0.000000    	                	;
 NODE_4730871    	163.8250    	0.000000    	                	;
 NODE_4728437    	176.8610    	0.011019    	                	;
 NODE_4728334    	172.3080    	0.001574    	                	;
 NODE_4728057    	177.6170    	0.011019    	                	;
 NODE_4730368    	163.4820    	0.000000    	                	;
 NODE_4730340    	164.6400    	0.000000    	                	;
 NODE_4730304    	163.3850    	0.008658    	                	;
 NODE_4730295    	163.3630    	0.010231    	                	;
 NODE_4730292    	165.4680    	0.000000    	                	;
 NODE_4730285    	168.0540    	0.007870    	                	;
 NODE_4729071    	170.9530    	0.003935    	                	;
 NODE_4729069    	175.3650    	0.008658    	                	;
 NODE_4729068    	175.3450    	0.029908    	                	;
 NODE_4729024    	173.5650    	0.002361    	                	;
 NODE_4728907    	170.8790    	0.003148    	                	;
 NODE_4728902    	170.9600    	0.001574    	                	;
 NODE_4728897    	171.1340    	0.004722    	                	;
 NODE_4728570    	171.1220    	0.013380    	                	;
 NODE_4728560    	171.9140    	0.005509    	                	;
 NODE_4728557    	171.9980    	0.011019    	                	;
 NODE_4728499    	171.2250    	0.000000    	                	;
 NODE_4728491    	171.0820    	0.000787    	                	;
 NODE_4728483    	171.0720    	0.004722    	                	;
 NODE_4728372    	170.3070    	0.023611    	                	;
 NODE_4728378    	173.7760    	0.001574    	                	;
 NODE_4730322    	166.5780    	0.000000    	                	;
 NODE_4730315    	171.9830    	0.001574    	                	;
 NODE_4730279    	165.8000    	0.007083    	                	;
 NODE_4730266    	163.6250    	0.003935    	                	;
 NODE_4730231    	162.1950    	0.000000    	                	;
 NODE_4730214    	162.2270    	0.000000    	                	;
 NODE_4730204    	163.3410    	0.000000    	                	;
 NODE_4728278    	172.6320    	0.000000    	                	;
 NODE_4728269    	176.0990    	0.000000    	                	;
 NODE_4729692    	174.7820    	0.000000    	                	;
 NODE_4728256    	175.9980    	0.000000    	                	;
 NODE_4729168    	176.7060    	0.000787    	                	;
 NODE_4729049    	171.5690    	0.011019    	                	;
 NODE_4729045    	171.5370    	0.000000    	                	;
 NODE_4728972    	174.1760    	0.001574    	                	;
 NODE_4728885    	174.6120    	0.010231    	                	;
 NODE_4728872    	170.7920    	0.000000    	                	;
 NODE_4728660    	174.1660    	0.000000    	                	;
 NODE_4728651    	174.3490    	0.000000    	                	;
 NODE_4728643    	174.3230    	0.000000    	                	;
 NODE_4728538    	171.7830    	0.008658    	                	;
 NODE_4728529    	172.0760    	0.011019    	                	;
 NODE_4728526    	174.8930    	0.000000    	                	;
 NODE_4728461    	171.8260    	0.019676    	                	;
 NODE_4728458    	171.1750    	0.000000    	                	;
 NODE_4729885    	171.9000    	0.000787    	                	;
 NODE_4728355    	178.1320    	0.672130    	                	;
 NODE_4728242    	172.1390    	0.000787    	                	;
 NODE_4728123    	174.0430    	0.002361    	                	;
 NODE_4728121    	171.0980    	0.000000    	                	;
 NODE_4730626    	158.0020    	0.010231    	                	;
 NODE_4730632    	157.9500    	0.007083    	                	;
 NODE_4730645    	158.1900    	0.000000    	                	;
 NODE_4730646    	158.2210    	0.000000    	                	;
 NODE_4730656    	158.2870    	0.006296    	                	;
 NODE_4730665    	158.5350    	0.000000    	                	;
 NODE_44702233   	164.3880    	0.000000    	                	;
 NODE_4730676    	158.9340    	0.000787    	                	;
 NODE_4730701    	159.8640    	0.000000    	                	;
 NODE_4730725    	160.3430    	0.267593    	                	;
 NODE_4729436    	177.1640    	0.001574    	                	;
 NODE_4729283    	177.3450    	0.010231    	                	;
 NODE_4728271    	179.2800    	0.000000    	                	;
 NODE_58849752   	171.2000    	0.000000    	                	;
 NODE_4729710    	171.5660    	0.000000    	                	;
 NODE_44598864   	170.4600    	0.000000    	                	;
 NODE_79610409   	176.4200    	0.000000    	                	;
 NODE_4729032    	171.8090    	0.000000    	                	;
 NODE_4728146    	171.7900    	0.000000    	                	;
 NODE_4728810    	175.2540    	0.007083    	                	;
 NODE_4730719    	159.5020    	0.000000    	                	;
 NODE_4728488    	171.1270    	0.055093    	                	;
 NODE_6452300    	164.4180    	0.000000    	                	;
 NODE_9101855    	176.9120    	0.000000    	                	;
 NODE_4728098    	172.7350    	0.001574    	                	;
 NODE_4729534    	170.1160    	0.004722    	                	;
 NODE_4729303    	174.8110    	0.000787    	                	;
 NODE_4728985    	171.8260    	0.000000    	                	;
 NODE_4728738    	175.8530    	0.003148    	                	;
 NODE_64365548   	175.8500    	0.058241    	                	;
 NODE_64365838   	176.4420    	0.023611    	                	;
 NODE_64365852   	176.4810    	0.004722    	                	;
 NODE_70856296   	177.4000    	0.007870    	                	;
 NODE_61288660   	171.0500    	0.014167    	                	;
 NODE_61288724   	171.6700    	0.014167    	                	;
 NODE_6452413    	164.9510    	0.000000    	                	;
 NODE_4729165    	169.9720    	0.000000    	                	;
 NODE_67687595   	172.2020    	0.000000    	                	;
 NODE_9931151    	172.8520    	0.000000    	                	;
 NODE_9931067    	172.0690    	0.000787    	                	;
 NODE_9930949    	171.8130    	0.000787    	                	;
 NODE_9930663    	172.2560    	0.002361    	                	;
 NODE_9929930    	170.5600    	0.000000    	                	;
 NODE_9440105    	177.6030    	0.011019    	                	;
 NODE_9101778    	176.3270    	0.011806    	                	;
 NODE_9101682    	176.3690    	0.008658    	                	;
 NODE_9101586    	175.7320    	0.004722    	                	;
 NODE_4728606    	172.0420    	0.007870    	                	;
 NODE_4728604    	172.0260    	0.007083    	                	;
 NODE_4729892    	170.8300    	0.008658    	                	;
 NODE_4728709    	172.2900    	0.007870    	                	;
 NODE_4728689    	174.5840    	0.000000    	                	;
 NODE_4728687    	174.5730    	0.002361    	                	;
 NODE_4728676    	174.6120    	0.024398    	                	;
 NODE_4729143    	173.5900    	0.007870    	                	;
 NODE_4729124    	172.0680    	0.010231    	                	;
 NODE_4729118    	171.8970    	0.001574    	                	;
 NODE_4729114    	171.7940    	0.006296    	                	;
 NODE_4728850    	174.1020    	0.000000    	                	;
 NODE_4728848    	173.8570    	0.000000    	                	;
 NODE_6452459    	163.1040    	0.000000    	                	;
 NODE_6452416    	165.1900    	0.000000    	                	;
 NODE_6452403    	163.1090    	0.000000    	                	;
 NODE_6452364    	165.4050    	0.000000    	                	;
 NODE_6452362    	165.8530    	0.008658    	                	;
 NODE_6452336    	165.5430    	0.006296    	                	;
 NODE_6452322    	165.6530    	0.014954    	                	;
 NODE_6452318    	165.7880    	0.007083    	                	;
 NODE_6452312    	165.0800    	0.003148    	                	;
 NODE_6452306    	165.1040    	0.005509    	                	;
 NODE_6452298    	164.4970    	0.004722    	                	;
 NODE_6452277    	165.3830    	0.002361    	                	;
 NODE_6452258    	163.0640    	0.000000    	                	;
 NODE_6452245    	162.3220    	0.000787    	                	;
 NODE_6452236    	163.0860    	0.003935    	                	;
 NODE_6452233    	162.7370    	0.000787    	                	;
 NODE_6452229    	163.1470    	0.002361    	                	;
 NODE_6452227    	163.4920    	0.009444    	                	;
 NODE_6452221    	164.0010    	0.002361    	                	;
 NODE_6452200    	163.8630    	0.000000    	                	;
 NODE_6452197    	163.7810    	0.015741    	                	;
 NODE_6452193    	163.3680    	0.000787    	                	;
 NODE_6452192    	163.9940    	0.004722    	                	;
 NODE_6452179    	163.9960    	0.000787    	                	;
 NODE_6452162    	163.8900    	0.001574    	                	;
 NODE_4729595    	172.1320    	0.005509    	                	;
 NODE_4729589    	172.7300    	0.000787    	                	;
 NODE_4729576    	173.8320    	0.010231    	                	;
 NODE_4729541    	170.3140    	0.000000    	                	;
 NODE_4729526    	174.9070    	0.003148    	                	;
 NODE_4729476    	173.5510    	0.000000    	                	;
 NODE_4729449    	171.6490    	0.006296    	                	;
 NODE_6452093    	164.5010    	0.007083    	                	;
 NODE_6452083    	165.7960    	0.003935    	                	;
 NODE_6452060    	165.7340    	0.014167    	                	;
 NODE_4729411    	176.0820    	0.003935    	                	;
 NODE_4729386    	173.8960    	0.008658    	                	;
 NODE_4729375    	173.6360    	0.003935    	                	;
 NODE_4729315    	174.4460    	0.003935    	                	;
 NODE_4729308    	175.2340    	0.007083    	                	;
 NODE_4729298    	174.2170    	0.005509    	                	;
 NODE_4729612    	176.9970    	0.008658    	                	;
 NODE_4729610    	176.5350    	0.011019    	                	;
 NODE_4729604    	172.2980    	0.003935    	                	;
 NODE_4728734    	171.9240    	0.011019    	                	;
 NODE_4728728    	177.7970    	0.011806    	                	;
 NODE_4730944    	166.5760    	0.002361    	                	;
 NODE_4730942    	166.4170    	0.000787    	                	;
 NODE_4730933    	165.1440    	0.002361    	                	;
 NODE_4730958    	164.9050    	0.000000    	                	;
 NODE_4730896    	164.6890    	0.000000    	                	;
 NODE_4730895    	164.4110    	0.000000    	                	;
 NODE_4730893    	165.0240    	0.005509    	                	;
 NODE_4730888    	165.8720    	0.012592    	                	;
 NODE_4730887    	166.0990    	0.000000    	                	;
 NODE_4728434    	174.6410    	0.008658    	                	;
 NODE_4728432    	174.6060    	0.000000    	                	;
 NODE_4728425    	175.3630    	0.000000    	                	;
 NODE_4728406    	177.4170    	0.005509    	                	;
 NODE_4728329    	173.7390    	0.013380    	                	;
 NODE_4728312    	174.9890    	0.003935    	                	;
 NODE_4729229    	177.5580    	0.001574    	                	;
 NODE_4729197    	173.4270    	0.009444    	                	;
 NODE_4729089    	171.3910    	0.007870    	                	;
 NODE_4730375    	164.5500    	0.008658    	                	;
 NODE_4730372    	163.3750    	0.001574    	                	;
 NODE_4730334    	163.3700    	0.003148    	                	;
 NODE_4730287    	166.7120    	0.000000    	                	;
 NODE_4730191    	167.5180    	0.011019    	                	;
 NODE_4730188    	169.9490    	0.003148    	                	;
 NODE_4730168    	164.1280    	0.003148    	                	;
 NODE_4730162    	165.1180    	0.000000    	                	;
 NODE_4729084    	171.6350    	0.006296    	                	;
 NODE_4729082    	171.5170    	0.005509    	                	;
 NODE_4729027    	169.8110    	0.003148    	                	;
 NODE_4728992    	174.5790    	0.011019    	                	;
 NODE_4728906    	170.8680    	0.007083    	                	;
 NODE_4728566    	170.7370    	0.000787    	                	;
 NODE_4728500    	171.3040    	0.054306    	                	;
 NODE_4728478    	177.6210    	0.003935    	                	;
 NODE_4728380    	174.0040    	0.009444    	                	;
 NODE_4728374    	172.0110    	0.004722    	                	;
 NODE_4730319    	167.9210    	0.008658    	                	;
 NODE_4730245    	162.9820    	0.008658    	                	;
 NODE_4728179    	173.8810    	0.000000    	                	;
 NODE_4728155    	173.4820    	0.000000    	                	;
 NODE_4729052    	171.8070    	0.000000    	                	;
 NODE_4729043    	171.6450    	0.002361    	                	;
 NODE_4729038    	170.0020    	0.201481    	                	;
 NODE_4728971    	174.1060    	0.000787    	                	;
 NODE_4728884    	174.6480    	0.002361    	                	;
 NODE_4728818    	175.2410    	0.010231    	                	;
 NODE_4728814    	175.2410    	0.005509    	                	;
 NODE_4728656    	174.4260    	0.011806    	                	;
 NODE_4728638    	174.1800    	0.062176    	                	;
 NODE_4728550    	174.1950    	0.011806    	                	;
 NODE_4728528    	171.8690    	0.008658    	                	;
 NODE_4728468    	171.1530    	0.000000    	                	;
 NODE_4728453    	170.9970    	0.000000    	                	;
 NODE_4728359    	177.3500    	0.000000    	                	;
 NODE_4728353    	171.1350    	0.228241    	                	;
 NODE_4728241    	172.4590    	0.000000    	                	;
 NODE_4728136    	174.7450    	0.001574    	                	;
 NODE_4728109    	173.5660    	0.000000    	                	;
 NODE_4728097    	170.5040    	0.007083    	                	;
 NODE_4730569    	158.3830    	0.000000    	                	;
 NODE_4730615    	157.9490    	0.000000    	                	;
 NODE_4730638    	158.7540    	0.021250    	                	;
 NODE_4730690    	159.1270    	0.005509    	                	;
 NODE_4730578    	159.3120    	0.000000    	                	;
 NODE_6452461    	165.2030    	0.000000    	                	;
 NODE_4729435    	177.2530    	0.005509    	                	;
 NODE_4729434    	177.1040    	0.003935    	                	;
 NODE_6452399    	164.3100    	0.000000    	                	;
 NODE_4728983    	172.3440    	0.000000    	                	;
 NODE_4730365    	163.3420    	0.000000    	                	;
 NODE_4728508    	175.6220    	0.003148    	                	;
 NODE_4729699    	171.6770    	0.000000    	                	;
 NODE_4728128    	174.4710    	0.004722    	                	;
 NODE_4729538    	170.2350    	0.004722    	                	;
 NODE_4729405    	175.6800    	0.000000    	                	;
 NODE_4728858    	171.9850    	0.002361    	                	;
 NODE_4728820    	175.2530    	0.018889    	                	;
 NODE_4728720    	177.7360    	0.016528    	                	;
 NODE_17542714   	176.1800    	0.016528    	                	;
 NODE_17542745   	174.8500    	0.010231    	                	;
 NODE_64365810   	176.6480    	0.002361    	                	;
 NODE_64365824   	176.5520    	0.021250    	                	;
 NODE_70856200   	177.4000    	0.014167    	                	;
 NODE_41331710   	175.1000    	0.008658    	                	;
 NODE_4728854    	174.0930    	0.007083    	                	;
 NODE_61288850   	170.9000    	0.008658    	                	;
 NODE_61288921   	171.3900    	0.012592    	                	;
 NODE_61288949   	171.6000    	0.000000    	                	;
 NODE_4728324    	178.6210    	0.010231    	                	;
 NODE_64365435   	176.1050    	0.017315    	                	;
 NODE_64365449   	176.1810    	0.002361    	                	;
 NODE_4729817    	171.6660    	0.000000    	                	;
 NODE_70856649   	176.7000    	0.000000    	                	;
 NODE_4728248    	169.9060    	0.000000    	                	;
 NODE_4728672    	174.6770    	0.009444    	                	;
 NODE_9930997    	171.3870    	0.007083    	                	;
 NODE_9930336    	163.7870    	0.018889    	                	;