[TITLE]
Converted from Epanet to Staci, case name: vashegy2.spr


[JUNCTIONS]
;ID              	Elev        	Demand      	Pattern         
 NODE_6921347    	277.1590    	0.000000    	                	;
 NODE_6634679    	251.4180    	0.000000    	                	;
 NODE_1322232    	258.4390    	0.000000    	                	;
 NODE_1336214    	278.3280    	0.000000    	                	;
 NODE_1314068    	277.4430    	0.013333    	                	;
 NODE_1312942    	275.0180    	0.011250    	                	;
 NODE_1312953    	243.8570    	0.021250    	                	;
 NODE_1312510    	258.9260    	0.000000    	                	;
 NODE_1323652    	257.6120    	0.000000    	                	;
 NODE_1312518    	258.3320    	0.001667    	                	;
 NODE_1325244    	287.2060    	0.000000    	                	;
 NODE_1324958    	270.1240    	0.000000    	                	;
 NODE_1323665    	281.5110    	0.000000    	                	;
 NODE_1337021    	268.7810    	0.000000    	                	;
 NODE_1316304    	259.5080    	0.000000    	                	;
 NODE_1314218    	263.6510    	0.000000    	                	;
 NODE_1314219    	262.6360    	0.000000    	                	;
 NODE_1320566    	264.2930    	0.000000    	                	;
 NODE_1314210    	251.3140    	0.000000    	                	;
 NODE_1316669    	245.5510    	0.187500    	                	;
 NODE_1312959    	242.8990    	0.187917    	                	;
 NODE_1313272    	277.0810    	0.000000    	                	;
 NODE_1313269    	250.2930    	0.000000    	                	;
 NODE_1313270    	272.7920    	0.000000    	                	;
 NODE_1313256    	270.5650    	0.000000    	                	;
 NODE_1318679    	267.7710    	0.000000    	                	;
 NODE_1318683    	255.3070    	0.000000    	                	;
 NODE_13580224   	243.3270    	0.000000    	                	;
 NODE_6921671    	275.4300    	0.000000    	                	;
 NODE_1312507    	269.4890    	0.014167    	                	;
 NODE_1312508    	269.3710    	0.003333    	                	;
 NODE_1315921    	281.1790    	0.007500    	                	;
 NODE_1312940    	275.8550    	0.000000    	                	;
 NODE_1318900    	276.0580    	0.000000    	                	;
 NODE_1336357    	258.2330    	0.007917    	                	;
 NODE_1325175    	275.0530    	0.000417    	                	;
 NODE_1330317    	271.0360    	0.000000    	                	;
 NODE_1330097    	265.4260    	0.002083    	                	;
 NODE_1316654    	262.9820    	0.003750    	                	;
 NODE_1312753    	253.1410    	0.003750    	                	;
 NODE_1312754    	248.9460    	0.017083    	                	;
 NODE_1330326    	263.2980    	0.011667    	                	;
 NODE_1316026    	285.7020    	0.008750    	                	;
 NODE_1312952    	242.6650    	0.023750    	                	;
 NODE_1312960    	247.7610    	0.000000    	                	;
 NODE_1312248    	280.3810    	0.001667    	                	;
 NODE_1312250    	299.3340    	0.007500    	                	;
 NODE_1312266    	270.2300    	0.014583    	                	;
 NODE_1323877    	281.3080    	0.000000    	                	;
 NODE_1323879    	279.9600    	0.004167    	                	;
 NODE_1323884    	277.5980    	0.000000    	                	;
 NODE_1323896    	272.5090    	0.001667    	                	;
 NODE_1312277    	301.8120    	0.000000    	                	;
 NODE_1312461    	290.6290    	0.002083    	                	;
 NODE_1312517    	258.2850    	0.013750    	                	;
 NODE_1319781    	272.4500    	0.000000    	                	;
 NODE_1323897    	272.4420    	0.000000    	                	;
 NODE_1323903    	272.4620    	0.000000    	                	;
 NODE_1323904    	272.6560    	0.006250    	                	;
 NODE_1319760    	297.6600    	0.000417    	                	;
 NODE_1312473    	295.6340    	0.001250    	                	;
 NODE_1315962    	292.6910    	0.000000    	                	;
 NODE_1338347    	270.5170    	0.001667    	                	;
 NODE_1312526    	267.9100    	0.003750    	                	;
 NODE_1324363    	260.3750    	0.017500    	                	;
 NODE_1312500    	269.4120    	0.008333    	                	;
 NODE_1312501    	269.5190    	0.011250    	                	;
 NODE_1312505    	268.9750    	0.019583    	                	;
 NODE_1324005    	265.6300    	0.000833    	                	;
 NODE_1325821    	259.7450    	0.000000    	                	;
 NODE_1324402    	274.5430    	0.004167    	                	;
 NODE_1335839    	269.9240    	0.005417    	                	;
 NODE_1314443    	276.8330    	0.000833    	                	;
 NODE_1336493    	272.6470    	0.012083    	                	;
 NODE_1316978    	257.7970    	0.004167    	                	;
 NODE_1326438    	276.3220    	0.000000    	                	;
 NODE_1326436    	269.9440    	0.004583    	                	;
 NODE_1323754    	282.0870    	0.000000    	                	;
 NODE_1325940    	301.6020    	0.003750    	                	;
 NODE_1325061    	267.6700    	0.010000    	                	;
 NODE_1324710    	289.3730    	0.002917    	                	;
 NODE_1324716    	292.9310    	0.000000    	                	;
 NODE_1337624    	264.9680    	0.004583    	                	;
 NODE_1318523    	273.0530    	0.000000    	                	;
 NODE_1318789    	266.3920    	0.002083    	                	;
 NODE_1324135    	268.1370    	0.001250    	                	;
 NODE_1321710    	266.6130    	0.001250    	                	;
 NODE_1324571    	265.6180    	0.000000    	                	;
 NODE_1324575    	265.8430    	0.001667    	                	;
 NODE_1314227    	262.3010    	0.001250    	                	;
 NODE_1314237    	265.8770    	0.000000    	                	;
 NODE_1314242    	265.5840    	0.000000    	                	;
 NODE_1337218    	265.6370    	0.000000    	                	;
 NODE_1314652    	266.1940    	0.000000    	                	;
 NODE_1314653    	266.4320    	0.005833    	                	;
 NODE_1314661    	261.8400    	0.000000    	                	;
 NODE_1338970    	262.3740    	0.007917    	                	;
 NODE_1314669    	262.8090    	0.005417    	                	;
 NODE_1314676    	263.6010    	0.004167    	                	;
 NODE_1314686    	264.0310    	0.000000    	                	;
 NODE_1320771    	272.3300    	0.005833    	                	;
 NODE_1320101    	272.4440    	0.004167    	                	;
 NODE_1328308    	272.1340    	0.003750    	                	;
 NODE_1320776    	264.8600    	0.002917    	                	;
 NODE_1328315    	264.4270    	0.004167    	                	;
 NODE_1338007    	269.4060    	0.003750    	                	;
 NODE_1323016    	270.1720    	0.011250    	                	;
 NODE_1339460    	271.2220    	0.002083    	                	;
 NODE_1339468    	274.1740    	0.001667    	                	;
 NODE_1320422    	273.1180    	0.007917    	                	;
 NODE_1336744    	272.5140    	0.003333    	                	;
 NODE_1330231    	275.5090    	0.001250    	                	;
 NODE_1320425    	275.7510    	0.004583    	                	;
 NODE_1320426    	276.1200    	0.012500    	                	;
 NODE_1330234    	272.3910    	0.004583    	                	;
 NODE_1330235    	270.2630    	0.008333    	                	;
 NODE_1340017    	257.0220    	0.002500    	                	;
 NODE_1340024    	258.1470    	0.003333    	                	;
 NODE_1336050    	254.5380    	0.002500    	                	;
 NODE_1321204    	255.7870    	0.007083    	                	;
 NODE_1321517    	258.6230    	0.004167    	                	;
 NODE_1330891    	258.1820    	0.002500    	                	;
 NODE_1340043    	257.6430    	0.005417    	                	;
 NODE_1330240    	256.9860    	0.011667    	                	;
 NODE_1321521    	257.1480    	0.000833    	                	;
 NODE_1340049    	258.0500    	0.005000    	                	;
 NODE_1321523    	260.6690    	0.000833    	                	;
 NODE_1330242    	260.2430    	0.003333    	                	;
 NODE_1340254    	258.2690    	0.005000    	                	;
 NODE_1340554    	257.0020    	0.002083    	                	;
 NODE_1337141    	255.7690    	0.002083    	                	;
 NODE_1322279    	278.5730    	0.000417    	                	;
 NODE_1331324    	274.4400    	0.002500    	                	;
 NODE_1340750    	274.2690    	0.000000    	                	;
 NODE_1340765    	261.8880    	0.002500    	                	;
 NODE_1340770    	259.6920    	0.004583    	                	;
 NODE_1341226    	263.5410    	0.005833    	                	;
 NODE_1341231    	250.9550    	0.003750    	                	;
 NODE_1322814    	250.5010    	0.007500    	                	;
 NODE_1341232    	253.1240    	0.001667    	                	;
 NODE_1319105    	251.7770    	0.001250    	                	;
 NODE_1331345    	251.4220    	0.008333    	                	;
 NODE_1341250    	250.4360    	0.005000    	                	;
 NODE_1319110    	248.6190    	0.000000    	                	;
 NODE_1337901    	257.4540    	0.000833    	                	;
 NODE_1327533    	259.7440    	0.007917    	                	;
 NODE_1327539    	256.4880    	0.001250    	                	;
 NODE_1327547    	252.6270    	0.000833    	                	;
 NODE_1320099    	252.9730    	0.013750    	                	;
 NODE_1313462    	273.7330    	0.004167    	                	;
 NODE_1319698    	252.9760    	0.002500    	                	;
 NODE_1328072    	253.0630    	0.002917    	                	;
 NODE_1328073    	253.2630    	0.012917    	                	;
 NODE_1338523    	265.7980    	0.002500    	                	;
 NODE_1321167    	254.0210    	0.020833    	                	;
 NODE_1330896    	255.4930    	0.020000    	                	;
 NODE_1331372    	272.6120    	0.000000    	                	;
 NODE_1335540    	268.0150    	0.000000    	                	;
 NODE_1335731    	266.2000    	0.000000    	                	;
 NODE_1336147    	262.0040    	0.006667    	                	;
 NODE_1336136    	244.9230    	0.006667    	                	;
 NODE_1336140    	270.5260    	0.005833    	                	;
 NODE_1336148    	257.8730    	0.006667    	                	;
 NODE_1314579    	258.2680    	0.593750    	                	;
 NODE_1318899    	285.6610    	0.017500    	                	;
 NODE_1327513    	283.2350    	0.000000    	                	;
 NODE_1313132    	273.0310    	0.000000    	                	;
 NODE_1312739    	263.9350    	0.000000    	                	;
 NODE_1316167    	261.4160    	0.000417    	                	;
 NODE_1316173    	269.2590    	0.000000    	                	;
 NODE_1312476    	289.1580    	0.001250    	                	;
 NODE_1318405    	259.6020    	0.003333    	                	;
 NODE_1312276    	285.5560    	0.006250    	                	;
 NODE_1312251    	304.4370    	0.000000    	                	;
 NODE_1337711    	284.2380    	0.003750    	                	;
 NODE_1316869    	258.0150    	0.009167    	                	;
 NODE_1315381    	265.7680    	0.000000    	                	;
 NODE_1312245    	262.2540    	0.002500    	                	;
 NODE_1312334    	258.3820    	0.002500    	                	;
 NODE_1325422    	254.4450    	0.000000    	                	;
 NODE_1324142    	269.4430    	0.000000    	                	;
 NODE_1326465    	266.1090    	0.000000    	                	;
 NODE_1314202    	254.1570    	0.000000    	                	;
 NODE_1326946    	275.6100    	0.000000    	                	;
 NODE_1338371    	266.8830    	0.000000    	                	;
 NODE_1313466    	240.9500    	0.000000    	                	;
 NODE_1326944    	276.3380    	0.000000    	                	;
 NODE_1314211    	254.4140    	0.000000    	                	;
 NODE_1324871    	245.1130    	0.000000    	                	;
 NODE_1318678    	273.7900    	0.000000    	                	;
 NODE_1313258    	263.6170    	0.000000    	                	;
 NODE_1313259    	262.6650    	0.000000    	                	;
 NODE_1320234    	272.1960    	0.000000    	                	;
 NODE_1318681    	255.6450    	0.000000    	                	;
 NODE_13609638   	283.9660    	0.000000    	                	;
 NODE_6921788    	279.7850    	0.000000    	                	;
 NODE_6921749    	279.0180    	0.000417    	                	;
 NODE_6921710    	278.2020    	0.000000    	                	;
 NODE_6921554    	279.7150    	0.000000    	                	;
 NODE_6921541    	280.5620    	0.000000    	                	;
 NODE_6921463    	279.4720    	0.000000    	                	;
 NODE_1315919    	286.8160    	0.007083    	                	;
 NODE_1314056    	283.5020    	0.005000    	                	;
 NODE_1326770    	257.6910    	0.000000    	                	;
 NODE_1326771    	254.5240    	0.010417    	                	;
 NODE_1314065    	274.2970    	0.007083    	                	;
 NODE_1314067    	278.4120    	0.010833    	                	;
 NODE_1314069    	271.0290    	0.014167    	                	;
 NODE_1312941    	275.5140    	0.003750    	                	;
 NODE_1326772    	254.5370    	0.010000    	                	;
 NODE_1323633    	256.2540    	0.016250    	                	;
 NODE_1324380    	281.1720    	0.008333    	                	;
 NODE_1325187    	266.5740    	0.000000    	                	;
 NODE_1313127    	275.5630    	0.000000    	                	;
 NODE_1313128    	277.3230    	0.001250    	                	;
 NODE_1337713    	251.3650    	0.006667    	                	;
 NODE_1321370    	247.2980    	0.000000    	                	;
 NODE_1315947    	279.0430    	0.000000    	                	;
 NODE_1312262    	278.8730    	0.012917    	                	;
 NODE_1312264    	276.6630    	0.000000    	                	;
 NODE_1312272    	280.1340    	0.008750    	                	;
 NODE_1322687    	281.2730    	0.002083    	                	;
 NODE_1336338    	282.6350    	0.011250    	                	;
 NODE_1315953    	282.8250    	0.005000    	                	;
 NODE_1323876    	281.0600    	0.005000    	                	;
 NODE_1323883    	277.9270    	0.002500    	                	;
 NODE_1317849    	274.2680    	0.000000    	                	;
 NODE_1319302    	272.7930    	0.000000    	                	;
 NODE_1323892    	272.4420    	0.002500    	                	;
 NODE_1331416    	272.8500    	0.000417    	                	;
 NODE_1323899    	272.3350    	0.003333    	                	;
 NODE_1323900    	272.4530    	0.000000    	                	;
 NODE_1323901    	272.6070    	0.003333    	                	;
 NODE_1312463    	301.9010    	0.002083    	                	;
 NODE_1312466    	302.5080    	0.000000    	                	;
 NODE_1336339    	295.6220    	0.000000    	                	;
 NODE_1316870    	271.0420    	0.003750    	                	;
 NODE_1312525    	269.9810    	0.000000    	                	;
 NODE_1321913    	266.6880    	0.004583    	                	;
 NODE_1312528    	267.8060    	0.018750    	                	;
 NODE_1319565    	261.2350    	0.008750    	                	;
 NODE_1312489    	271.3410    	0.009167    	                	;
 NODE_1312492    	260.0660    	0.008750    	                	;
 NODE_1312494    	262.6490    	0.025000    	                	;
 NODE_1312498    	268.2360    	0.002083    	                	;
 NODE_1321981    	269.9780    	0.004583    	                	;
 NODE_1325666    	280.3330    	0.004583    	                	;
 NODE_1316330    	276.6670    	0.006250    	                	;
 NODE_1325819    	270.3730    	0.000000    	                	;
 NODE_1316334    	258.3690    	0.019167    	                	;
 NODE_1334978    	268.1100    	0.007083    	                	;
 NODE_1320010    	249.1050    	0.000417    	                	;
 NODE_1337613    	272.7660    	0.005417    	                	;
 NODE_1324404    	259.5690    	0.004167    	                	;
 NODE_1320365    	245.8520    	0.000833    	                	;
 NODE_1323745    	261.0840    	0.001667    	                	;
 NODE_1334943    	271.3290    	0.002083    	                	;
 NODE_1316273    	278.9450    	0.000000    	                	;
 NODE_1338274    	277.6220    	0.021250    	                	;
 NODE_1326435    	262.6290    	0.005000    	                	;
 NODE_1323756    	269.9650    	0.036667    	                	;
 NODE_1325348    	300.1310    	0.000000    	                	;
 NODE_1325942    	286.7980    	0.000000    	                	;
 NODE_1319685    	272.9730    	0.006667    	                	;
 NODE_1325927    	274.2070    	0.007917    	                	;
 NODE_1334972    	302.8310    	0.007083    	                	;
 NODE_1338106    	277.8250    	0.019583    	                	;
 NODE_1338050    	259.5580    	0.000417    	                	;
 NODE_1334970    	267.1670    	0.002083    	                	;
 NODE_1324306    	275.8240    	0.001250    	                	;
 NODE_1321685    	289.6370    	0.006667    	                	;
 NODE_1324712    	288.9570    	0.007917    	                	;
 NODE_1336598    	302.3240    	0.001667    	                	;
 NODE_1326318    	302.8820    	0.000000    	                	;
 NODE_1319525    	267.4010    	0.005000    	                	;
 NODE_1331471    	267.0780    	0.002500    	                	;
 NODE_1318687    	262.5850    	0.005000    	                	;
 NODE_1313267    	258.1150    	0.006250    	                	;
 NODE_1318684    	270.2700    	0.000417    	                	;
 NODE_1314215    	272.2570    	0.031250    	                	;
 NODE_1314204    	260.6950    	0.005000    	                	;
 NODE_1326942    	251.1720    	0.002500    	                	;
 NODE_1314206    	252.8700    	0.004167    	                	;
 NODE_1314223    	260.2800    	0.000000    	                	;
 NODE_1314229    	263.7370    	0.000000    	                	;
 NODE_1314234    	265.3480    	0.000000    	                	;
 NODE_1326953    	265.3680    	0.003750    	                	;
 NODE_1314241    	265.4260    	0.006667    	                	;
 NODE_1320795    	266.1070    	0.002083    	                	;
 NODE_1327489    	266.1250    	0.005833    	                	;
 NODE_1314665    	262.4260    	0.005833    	                	;
 NODE_1314668    	262.7590    	0.000000    	                	;
 NODE_1314673    	264.2990    	0.000000    	                	;
 NODE_1314675    	263.3360    	0.000000    	                	;
 NODE_1314677    	263.7930    	0.005833    	                	;
 NODE_1327499    	263.8610    	0.003333    	                	;
 NODE_1327500    	264.0670    	0.001250    	                	;
 NODE_1314685    	263.9390    	0.006250    	                	;
 NODE_1314687    	264.1640    	0.006667    	                	;
 NODE_1338971    	264.6300    	0.007917    	                	;
 NODE_1327503    	264.8140    	0.005000    	                	;
 NODE_1314866    	264.8110    	0.000000    	                	;
 NODE_1320772    	272.4400    	0.004583    	                	;
 NODE_1328306    	272.8220    	0.000417    	                	;
 NODE_1328309    	273.1420    	0.000000    	                	;
 NODE_1320777    	265.0230    	0.002917    	                	;
 NODE_1328321    	270.4740    	0.005833    	                	;
 NODE_1339454    	271.5830    	0.002917    	                	;
 NODE_1339459    	273.3020    	0.007083    	                	;
 NODE_1339462    	270.5430    	0.003333    	                	;
 NODE_1319590    	274.8530    	0.003333    	                	;
 NODE_1339479    	274.4960    	0.005417    	                	;
 NODE_1320427    	274.1680    	0.008333    	                	;
 NODE_1331329    	273.8660    	0.001250    	                	;
 NODE_1339484    	274.1210    	0.005000    	                	;
 NODE_1339486    	273.2980    	0.003333    	                	;
 NODE_1320432    	270.6980    	0.004583    	                	;
 NODE_1321201    	258.6150    	0.002917    	                	;
 NODE_1340029    	255.4420    	0.009583    	                	;
 NODE_1340039    	257.8390    	0.005000    	                	;
 NODE_1340048    	257.8260    	0.001667    	                	;
 NODE_1337988    	258.4530    	0.003750    	                	;
 NODE_1340051    	260.4730    	0.003333    	                	;
 NODE_1340248    	260.2600    	0.002917    	                	;
 NODE_1340251    	259.4870    	0.000833    	                	;
 NODE_1321525    	259.1160    	0.005833    	                	;
 NODE_1330243    	258.3950    	0.007083    	                	;
 NODE_1322092    	255.6410    	0.000000    	                	;
 NODE_1330966    	255.6440    	0.002917    	                	;
 NODE_1340556    	255.1240    	0.001250    	                	;
 NODE_1340557    	257.3750    	0.010000    	                	;
 NODE_1340733    	257.1840    	0.003333    	                	;
 NODE_1330244    	278.4830    	0.002917    	                	;
 NODE_1340741    	277.0800    	0.005833    	                	;
 NODE_1340764    	262.5940    	0.003750    	                	;
 NODE_1335595    	259.1750    	0.002917    	                	;
 NODE_1336426    	259.0790    	0.002083    	                	;
 NODE_1340773    	262.1150    	0.000417    	                	;
 NODE_1322270    	262.8100    	0.004167    	                	;
 NODE_1341229    	252.6770    	0.007917    	                	;
 NODE_1341230    	251.1680    	0.001250    	                	;
 NODE_1328074    	253.4240    	0.004583    	                	;
 NODE_1341235    	253.3320    	0.005000    	                	;
 NODE_1319106    	251.1220    	0.006250    	                	;
 NODE_1319107    	249.9180    	0.002917    	                	;
 NODE_1319603    	249.4630    	0.000000    	                	;
 NODE_1341246    	250.4660    	0.003750    	                	;
 NODE_1328078    	253.3030    	0.002917    	                	;
 NODE_1319111    	247.4610    	0.009583    	                	;
 NODE_1341260    	247.3830    	0.006667    	                	;
 NODE_1320454    	254.2380    	0.005000    	                	;
 NODE_1341265    	245.6980    	0.002917    	                	;
 NODE_1318854    	252.7050    	0.003750    	                	;
 NODE_1313281    	266.3530    	0.005833    	                	;
 NODE_1327534    	260.0050    	0.004167    	                	;
 NODE_1318851    	259.3390    	0.000000    	                	;
 NODE_1327552    	253.4460    	0.011667    	                	;
 NODE_1327553    	253.2140    	0.012917    	                	;
 NODE_1327525    	256.7830    	0.010000    	                	;
 NODE_1319686    	257.1210    	0.006667    	                	;
 NODE_1327308    	261.5570    	0.004167    	                	;
 NODE_1336019    	274.2320    	0.005417    	                	;
 NODE_1330908    	252.3340    	0.004167    	                	;
 NODE_1330910    	254.7810    	0.002083    	                	;
 NODE_1338026    	260.0850    	0.001250    	                	;
 NODE_1330918    	260.2840    	0.006250    	                	;
 NODE_1336149    	257.2470    	0.007083    	                	;
 NODE_1336150    	252.3190    	0.001250    	                	;
 NODE_7523384    	252.6640    	0.000000    	                	;
 NODE_1319276    	254.6220    	0.000000    	                	;
 NODE_1313159    	264.3370    	0.671250    	                	;
 NODE_1327945    	268.1780    	0.000000    	                	;
 NODE_1324579    	269.5270    	0.000000    	                	;
 NODE_1312460    	293.4010    	0.001250    	                	;
 NODE_1315814    	297.9460    	0.000000    	                	;
 NODE_1326948    	264.0500    	0.000000    	                	;
 NODE_1313468    	242.3530    	0.000000    	                	;
 NODE_1326117    	303.2090    	0.000000    	                	;
 NODE_1313271    	248.0210    	0.000000    	                	;
 NODE_1318680    	259.6700    	0.000000    	                	;
 NODE_1313260    	252.8240    	0.000000    	                	;
 NODE_1328854    	263.7840    	0.000000    	                	;
 NODE_6921723    	278.6320    	0.000000    	                	;
 NODE_6921619    	276.0670    	0.000000    	                	;
 NODE_6921502    	279.3090    	0.000000    	                	;
 NODE_1316172    	269.2410    	0.000000    	                	;
 NODE_1338746    	269.2510    	0.001250    	                	;
 NODE_1314062    	282.3320    	0.005417    	                	;
 NODE_1315923    	274.9300    	0.003333    	                	;
 NODE_1337446    	273.5120    	0.001250    	                	;
 NODE_1315925    	270.4970    	0.005417    	                	;
 NODE_1337697    	271.1170    	0.011250    	                	;
 NODE_1323545    	257.9640    	0.003750    	                	;
 NODE_1326244    	288.7580    	0.000000    	                	;
 NODE_1324053    	278.1370    	0.006250    	                	;
 NODE_1316666    	240.5430    	0.022500    	                	;
 NODE_1315943    	301.9450    	0.002083    	                	;
 NODE_1315946    	284.7750    	0.003750    	                	;
 NODE_1312260    	283.3750    	0.001667    	                	;
 NODE_1315948    	278.6530    	0.004583    	                	;
 NODE_1312265    	274.0680    	0.002917    	                	;
 NODE_1337513    	279.5990    	0.000000    	                	;
 NODE_1323886    	277.0370    	0.000000    	                	;
 NODE_1317848    	275.8340    	0.000000    	                	;
 NODE_1323894    	272.2300    	0.000000    	                	;
 NODE_1312275    	285.7150    	0.010000    	                	;
 NODE_1315955    	301.7180    	0.001250    	                	;
 NODE_1312331    	255.2080    	0.007917    	                	;
 NODE_1335698    	258.2670    	0.000833    	                	;
 NODE_1338107    	272.5740    	0.002083    	                	;
 NODE_1318018    	272.6520    	0.000000    	                	;
 NODE_1312472    	295.0950    	0.000000    	                	;
 NODE_1315961    	293.9970    	0.000000    	                	;
 NODE_1321367    	293.2320    	0.003333    	                	;
 NODE_1312475    	293.2350    	0.003750    	                	;
 NODE_1322688    	296.0350    	0.002917    	                	;
 NODE_1312481    	280.7740    	0.006250    	                	;
 NODE_1315964    	278.5100    	0.002083    	                	;
 NODE_1317063    	260.8820    	0.005000    	                	;
 NODE_1312493    	261.5140    	0.008750    	                	;
 NODE_1316168    	266.1190    	0.004167    	                	;
 NODE_1323408    	267.8010    	0.000000    	                	;
 NODE_1333440    	271.4400    	0.000000    	                	;
 NODE_1338593    	275.0310    	0.012917    	                	;
 NODE_1315715    	268.8240    	0.000000    	                	;
 NODE_1319272    	272.3040    	0.012083    	                	;
 NODE_1338856    	277.5890    	0.001250    	                	;
 NODE_1326439    	278.2990    	0.000417    	                	;
 NODE_1338156    	269.3700    	0.004583    	                	;
 NODE_1326030    	296.7200    	0.003333    	                	;
 NODE_1325944    	302.6380    	0.000000    	                	;
 NODE_1317144    	302.0760    	0.001250    	                	;
 NODE_1324305    	278.6300    	0.001250    	                	;
 NODE_1324711    	289.0740    	0.000000    	                	;
 NODE_1319758    	288.4070    	0.007500    	                	;
 NODE_1324718    	265.2550    	0.005417    	                	;
 NODE_1336604    	263.2440    	0.000000    	                	;
 NODE_1324573    	265.6070    	0.007083    	                	;
 NODE_1315380    	265.8970    	0.007917    	                	;
 NODE_1324577    	268.1680    	0.000000    	                	;
 NODE_1328011    	252.6360    	0.000417    	                	;
 NODE_1314869    	257.0120    	0.023750    	                	;
 NODE_1328012    	245.4950    	0.340000    	                	;
 NODE_1314870    	252.0410    	0.002500    	                	;
 NODE_1314203    	261.0630    	0.003750    	                	;
 NODE_1326943    	261.5140    	0.003333    	                	;
 NODE_1314230    	263.9990    	0.000000    	                	;
 NODE_1314240    	265.7060    	0.000000    	                	;
 NODE_1326955    	265.6110    	0.007500    	                	;
 NODE_1314657    	261.6400    	0.004167    	                	;
 NODE_1314670    	263.4680    	0.000000    	                	;
 NODE_1320571    	263.5260    	0.006667    	                	;
 NODE_1327497    	264.6770    	0.000000    	                	;
 NODE_1327498    	263.6150    	0.002500    	                	;
 NODE_1314680    	264.0760    	0.001667    	                	;
 NODE_1314691    	264.5060    	0.000000    	                	;
 NODE_1314692    	264.7540    	0.001667    	                	;
 NODE_1328089    	254.8320    	0.000000    	                	;
 NODE_1328092    	276.2860    	0.003333    	                	;
 NODE_1328093    	277.1150    	0.002083    	                	;
 NODE_1336720    	277.5740    	0.001250    	                	;
 NODE_1330445    	272.8820    	0.007917    	                	;
 NODE_1330447    	266.1930    	0.004583    	                	;
 NODE_1320778    	268.0330    	0.004167    	                	;
 NODE_1328320    	269.6850    	0.003333    	                	;
 NODE_1339463    	270.6510    	0.005000    	                	;
 NODE_1339465    	275.5260    	0.004583    	                	;
 NODE_1339466    	275.4710    	0.012500    	                	;
 NODE_1339471    	274.5180    	0.004583    	                	;
 NODE_1320424    	274.9170    	0.004167    	                	;
 NODE_1330233    	274.3110    	0.008333    	                	;
 NODE_1320429    	273.4930    	0.005000    	                	;
 NODE_1339487    	272.9180    	0.003750    	                	;