[TITLE]
Converted from Epanet to Staci, case name: acsad.spr


[JUNCTIONS]
;ID              	Elev        	Demand      	Pattern         
 NODE_4731691    	206.7963    	0.000000    	                	;
 NODE_4731530    	205.9261    	0.000000    	                	;
 NODE_4731629    	202.9675    	0.000000    	                	;
 NODE_4731624    	201.8257    	0.000000    	                	;
 NODE_4731518    	201.9240    	0.003750    	                	;
 NODE_4731594    	203.3733    	0.000000    	                	;
 NODE_4726151    	219.2734    	0.004583    	                	;
 NODE_4725953    	220.2422    	0.004167    	                	;
 NODE_4726123    	219.4011    	0.004583    	                	;
 NODE_4725935    	215.1623    	0.000000    	                	;
 NODE_4731670    	200.8559    	0.000000    	                	;
 NODE_4731610    	202.4322    	0.000000    	                	;
 NODE_4731549    	205.0286    	0.000000    	                	;
 NODE_4726116    	218.9968    	0.000000    	                	;
 NODE_4726092    	219.1600    	0.001250    	                	;
 NODE_4731653    	203.5433    	0.000000    	                	;
 NODE_4726016    	220.5340    	0.000000    	                	;
 NODE_4731687    	203.1433    	0.000000    	                	;
 NODE_4726042    	217.8508    	0.003333    	                	;
 NODE_4731507    	203.2028    	0.000417    	                	;
 NODE_4731501    	203.7331    	0.000000    	                	;
 NODE_4726118    	219.1683    	0.002500    	                	;
 NODE_4731509    	206.0160    	0.000417    	                	;
 NODE_4726031    	217.9583    	0.000000    	                	;
 NODE_4725967    	218.0013    	0.000000    	                	;
 NODE_4726121    	219.2254    	0.003333    	                	;
 NODE_4731574    	203.2789    	0.000000    	                	;
 NODE_4731502    	204.9752    	0.000000    	                	;
 NODE_4731598    	205.9957    	0.000000    	                	;
 NODE_4731528    	202.4555    	0.000000    	                	;
 NODE_4731585    	204.0805    	0.005833    	                	;
 NODE_4731503    	202.0986    	0.002500    	                	;
 NODE_4725996    	217.0256    	0.000000    	                	;
 NODE_4725973    	218.5307    	0.001250    	                	;
 NODE_4726093    	219.5843    	0.000000    	                	;
 NODE_4731587    	203.1329    	0.007917    	                	;
 NODE_4726081    	219.7686    	0.006667    	                	;
 NODE_4731545    	205.7171    	0.003333    	                	;
 NODE_4731641    	204.2546    	0.001667    	                	;
 NODE_4731634    	203.1861    	0.000417    	                	;
 NODE_4726044    	217.9193    	0.003333    	                	;
 NODE_4726028    	220.8054    	0.005833    	                	;
 NODE_4731506    	203.2392    	0.005000    	                	;
 NODE_4726080    	219.5600    	0.003750    	                	;
 NODE_4731541    	203.8094    	0.002083    	                	;
 NODE_4726082    	219.8079    	0.002500    	                	;
 NODE_4726014    	220.9521    	0.000000    	                	;
 NODE_4731551    	202.4219    	0.000000    	                	;
 NODE_4725950    	219.1582    	0.004167    	                	;
 NODE_4731643    	204.7937    	0.001250    	                	;
 NODE_4726132    	217.4487    	0.000000    	                	;
 NODE_4731563    	203.2012    	0.002500    	                	;
 NODE_4731625    	201.8220    	0.003333    	                	;
 NODE_4726147    	216.1205    	0.000000    	                	;
 NODE_4731694    	207.5686    	0.000000    	                	;
 NODE_4731682    	201.7326    	0.000000    	                	;
 NODE_4731491    	204.6224    	0.000833    	                	;
 NODE_4731581    	204.0806    	0.000000    	                	;
 NODE_4726152    	218.4278    	0.002500    	                	;
 NODE_4725965    	218.7522    	0.000833    	                	;
 NODE_4731602    	201.7426    	0.000000    	                	;
 NODE_4726150    	216.9306    	0.000000    	                	;
 NODE_4725952    	220.0659    	0.001667    	                	;
 NODE_4731565    	202.9725    	0.002083    	                	;
 NODE_4731560    	204.4685    	0.000833    	                	;
 NODE_4725951    	219.7593    	0.004167    	                	;
 NODE_4726110    	219.9826    	0.009583    	                	;
 NODE_4726050    	219.5546    	0.000000    	                	;
 NODE_4726043    	218.4198    	0.000000    	                	;
 NODE_4725948    	218.4980    	0.000000    	                	;
 NODE_4725934    	219.4297    	0.000000    	                	;
 NODE_4731623    	201.8113    	0.003333    	                	;
 NODE_4731618    	201.9733    	0.003333    	                	;
 NODE_4731550    	202.7173    	0.000000    	                	;
 NODE_4731569    	205.7771    	0.000000    	                	;
 NODE_4731690    	205.0284    	0.000000    	                	;
 NODE_4731656    	203.1126    	0.005833    	                	;
 NODE_4725972    	218.6006    	0.003333    	                	;
 NODE_4726017    	219.8743    	0.000417    	                	;
 NODE_4726138    	218.0821    	0.003750    	                	;
 NODE_4725962    	220.2990    	0.000000    	                	;
 NODE_4726133    	218.2075    	0.010417    	                	;
 NODE_4731622    	201.8544    	0.002500    	                	;
 NODE_4726087    	220.0190    	0.000000    	                	;
 NODE_4731671    	200.9034    	0.000000    	                	;
 NODE_4725946    	218.7449    	0.001667    	                	;
 NODE_4731588    	202.8547    	0.004167    	                	;
 NODE_4726122    	219.3777    	0.000000    	                	;
 NODE_4731673    	198.3460    	0.005417    	                	;
 NODE_4726035    	217.9102    	0.005000    	                	;
 NODE_4726161    	219.3783    	0.006667    	                	;
 NODE_4726086    	219.7513    	0.002083    	                	;
 NODE_4731573    	203.3727    	0.004167    	                	;
 NODE_4731489    	203.7233    	0.010833    	                	;
 NODE_4731516    	201.6859    	0.000000    	                	;
 NODE_4726111    	219.6966    	0.001250    	                	;
 NODE_4731580    	204.0130    	0.004583    	                	;
 NODE_4726039    	217.9731    	0.002083    	                	;
 NODE_4731639    	203.7502    	0.001250    	                	;
 NODE_4731590    	203.2829    	0.004167    	                	;
 NODE_4726153    	217.8319    	0.004167    	                	;
 NODE_4731611    	202.9429    	0.001667    	                	;
 NODE_4731570    	205.9231    	0.000417    	                	;
 NODE_4725978    	218.7964    	0.002083    	                	;
 NODE_4725957    	218.8215    	0.001250    	                	;
 NODE_4726049    	217.8414    	0.003333    	                	;
 NODE_4725987    	218.4378    	0.003750    	                	;
 NODE_4726012    	220.3913    	0.001250    	                	;
 NODE_4726146    	216.2194    	0.002917    	                	;
 NODE_4726061    	216.3347    	0.006250    	                	;
 NODE_4731635    	203.2376    	0.000417    	                	;
 NODE_4726071    	219.7077    	0.004167    	                	;
 NODE_4731648    	202.8525    	0.001250    	                	;
 NODE_4731494    	201.1339    	0.004167    	                	;
 NODE_4725990    	216.1512    	0.000000    	                	;
 NODE_4731683    	201.9394    	0.000000    	                	;
 NODE_4731640    	203.9101    	0.000833    	                	;
 NODE_4731615    	202.6814    	0.002500    	                	;
 NODE_4731556    	202.3993    	0.004167    	                	;
 NODE_4726149    	218.4277    	0.004583    	                	;
 NODE_4726190    	219.4228    	0.000000    	                	;
 NODE_4726109    	219.9958    	0.002083    	                	;
 NODE_4726099    	219.4484    	0.000000    	                	;
 NODE_4731688    	203.6847    	0.000000    	                	;
 NODE_4725949    	219.3342    	0.002917    	                	;
 NODE_4726066    	217.8837    	0.000000    	                	;
 NODE_4726090    	219.7657    	0.001667    	                	;
 NODE_4731689    	200.9590    	0.000000    	                	;
 NODE_4731637    	203.1857    	0.004167    	                	;
 NODE_4731566    	201.9922    	0.002500    	                	;
 NODE_4731544    	203.7834    	0.004583    	                	;
 NODE_4725989    	218.4286    	0.002500    	                	;
 NODE_4726117    	219.0776    	0.000000    	                	;
 NODE_4726069    	219.2508    	0.002917    	                	;
 NODE_4726068    	219.4793    	0.000000    	                	;
 NODE_4726009    	217.0345    	0.001667    	                	;
 NODE_4726160    	219.2175    	0.000417    	                	;
 NODE_4725998    	217.1319    	0.000833    	                	;
 NODE_4731553    	202.0875    	0.006667    	                	;
 NODE_6269215    	219.6361    	0.002917    	                	;
 NODE_4725969    	218.7008    	0.004583    	                	;
 NODE_4726130    	219.2204    	0.000000    	                	;
 NODE_4725983    	218.3446    	0.001667    	                	;
 NODE_4725959    	219.4411    	0.004583    	                	;
 NODE_4726106    	219.3025    	0.000833    	                	;
 NODE_4731636    	203.4925    	0.003333    	                	;
 NODE_4731520    	201.8197    	0.000000    	                	;
 NODE_4731657    	201.8112    	0.001667    	                	;
 NODE_4726004    	216.9289    	0.000000    	                	;
 NODE_4731606    	202.7023    	0.000000    	                	;
 NODE_4726025    	221.0304    	0.000000    	                	;
 NODE_4726154    	218.1977    	0.002500    	                	;
 NODE_4731568    	202.9056    	0.002500    	                	;
 NODE_4726079    	219.2532    	0.000000    	                	;
 NODE_4725933    	215.8457    	0.000000    	                	;
 NODE_4726032    	219.4742    	0.000000    	                	;
 NODE_4731600    	200.9371    	0.000417    	                	;
 NODE_4726059    	217.8560    	0.002500    	                	;
 NODE_4731583    	203.1428    	0.000000    	                	;
 NODE_4725932    	215.4197    	0.000000    	                	;
 NODE_4731681    	202.5551    	0.000000    	                	;
 NODE_4731490    	202.8156    	0.000417    	                	;
 NODE_4731582    	204.0833    	0.000417    	                	;
 NODE_4726030    	220.2361    	0.000000    	                	;
 NODE_4725999    	217.1965    	0.000000    	                	;
 NODE_4725961    	219.9350    	0.002500    	                	;
 NODE_4731646    	203.2702    	0.000000    	                	;
 NODE_4731557    	203.0818    	0.000417    	                	;
 NODE_4726134    	216.1900    	0.000000    	                	;
 NODE_4726142    	217.0936    	0.000000    	                	;
 NODE_4731668    	203.9129    	0.000417    	                	;
 NODE_4731584    	203.8249    	0.000000    	                	;
 NODE_4725945    	220.3682    	0.000000    	                	;
 NODE_4731674    	204.0165    	0.000000    	                	;
 NODE_4731531    	204.5248    	0.000000    	                	;
 NODE_4731543    	203.8849    	0.002083    	                	;
 NODE_4726036    	218.0805    	0.000000    	                	;
 NODE_4726023    	221.0650    	0.000000    	                	;
 NODE_4726124    	219.4138    	0.000417    	                	;
 NODE_4726048    	217.9474    	0.002500    	                	;
 NODE_4731607    	203.2678    	0.001250    	                	;
 NODE_4731505    	202.6159    	0.006667    	                	;
 NODE_4731591    	202.9942    	0.001667    	                	;
 NODE_4726102    	219.0999    	0.005833    	                	;
 NODE_4726157    	219.6737    	0.002917    	                	;
 NODE_4731638    	203.2642    	0.000000    	                	;
 NODE_4731519    	201.9590    	0.000417    	                	;
 NODE_4731592    	203.1294    	0.000000    	                	;
 NODE_4731564    	202.9598    	0.002917    	                	;
 NODE_4725995    	217.1126    	0.003333    	                	;
 NODE_4731510    	202.9238    	0.001250    	                	;
 NODE_4731633    	203.1959    	0.002083    	                	;
 NODE_4725984    	218.7853    	0.000417    	                	;
 NODE_4726088    	219.6964    	0.002083    	                	;
 NODE_4726077    	219.1307    	0.002917    	                	;
 NODE_4731620    	201.7714    	0.002083    	                	;
 NODE_4731597    	203.2952    	0.002500    	                	;
 NODE_4726075    	219.3275    	0.002500    	                	;
 NODE_4731512    	204.6063    	0.000833    	                	;
 NODE_4726027    	220.7268    	0.000000    	                	;
 NODE_4726085    	219.3144    	0.003333    	                	;
 NODE_4726015    	220.4216    	0.000000    	                	;
 NODE_4731529    	204.9767    	0.001250    	                	;
 NODE_4731650    	203.7496    	0.000833    	                	;
 NODE_4725954    	218.4434    	0.002500    	                	;
 NODE_4725979    	218.6229    	0.000000    	                	;
 NODE_4731658    	202.7655    	0.001667    	                	;
 NODE_4726155    	219.7948    	0.000833    	                	;
 NODE_4731562    	203.2852    	0.002917    	                	;
 NODE_4726026    	220.2187    	0.000417    	                	;
 NODE_4726024    	221.0902    	0.000000    	                	;
 NODE_4726145    	216.5848    	0.007083    	                	;
 NODE_4726140    	217.5196    	0.003750    	                	;
 NODE_4731664    	203.9197    	0.000417    	                	;
 NODE_4731559    	204.1675    	0.000417    	                	;
 NODE_4731621    	202.1461    	0.001250    	                	;
 NODE_4731667    	203.8208    	0.000000    	                	;
 NODE_4731523    	203.1586    	0.003333    	                	;
 NODE_4731579    	203.9329    	0.002500    	                	;
 NODE_4731561    	203.2892    	0.000417    	                	;
 NODE_4726007    	220.2444    	0.005833    	                	;
 NODE_4725988    	218.5209    	0.002500    	                	;
 NODE_4726127    	219.3888    	0.001667    	                	;
 NODE_4731684    	203.2704    	0.000000    	                	;
 NODE_4731678    	206.0005    	0.000000    	                	;
 NODE_4731663    	204.2645    	0.001667    	                	;
 NODE_4731652    	204.0362    	0.000833    	                	;
 NODE_4731496    	203.8482    	0.004167    	                	;
 NODE_4725993    	216.7958    	0.000000    	                	;
 NODE_4726095    	219.8071    	0.000000    	                	;
 NODE_4731527    	203.6887    	0.002917    	                	;
 NODE_4731612    	201.5803    	0.004167    	                	;
 NODE_4725971    	218.6664    	0.002500    	                	;
 NODE_4726070    	220.0034    	0.001667    	                	;
 NODE_4725986    	218.4609    	0.000833    	                	;
 NODE_4726072    	219.7225    	0.000000    	                	;
 NODE_4731497    	203.0792    	0.000833    	                	;
 NODE_4725955    	218.5174    	0.000000    	                	;
 NODE_4726076    	219.1253    	0.003333    	                	;
 NODE_4731589    	204.3714    	0.002500    	                	;
 NODE_4726107    	219.4391    	0.000000    	                	;
 NODE_4726056    	218.0514    	0.000417    	                	;
 NODE_4731655    	202.1383    	0.001250    	                	;
 NODE_4731628    	203.2073    	0.003333    	                	;
 NODE_4726000    	216.4092    	0.004167    	                	;
 NODE_4726120    	219.2887    	0.000833    	                	;
 NODE_4726097    	219.6976    	0.002500    	                	;
 NODE_4731526    	203.2736    	0.000000    	                	;
 NODE_4731616    	202.4004    	0.000000    	                	;
 NODE_4731608    	203.0864    	0.000833    	                	;
 NODE_4725960    	219.8661    	0.003750    	                	;
 NODE_4726089    	219.1482    	0.000417    	                	;
 NODE_4731554    	204.0511    	0.006667    	                	;
 NODE_4731651    	204.1307    	0.002083    	                	;
 NODE_4731649    	203.4095    	0.002917    	                	;
 NODE_4726074    	219.4629    	0.003333    	                	;
 NODE_4726054    	217.8598    	0.005000    	                	;
 NODE_4731614    	202.4103    	0.004167    	                	;
 NODE_4731555    	203.5727    	0.000833    	                	;
 NODE_4726137    	216.1699    	0.002500    	                	;
 NODE_4726103    	219.5187    	0.002917    	                	;
 NODE_4731498    	206.8057    	0.000000    	                	;
 NODE_4726060    	218.1111    	0.004167    	                	;
 NODE_4731524    	203.2921    	0.001667    	                	;
 NODE_4726053    	217.7594    	0.003333    	                	;
 NODE_4731525    	204.3642    	0.000000    	                	;
 NODE_4731572    	203.3199    	0.003750    	                	;
 NODE_4726011    	218.9484    	0.002083    	                	;
 NODE_4726052    	217.7909    	0.002500    	                	;
 NODE_4731675    	203.6729    	0.000000    	                	;
 NODE_4731700    	204.8581    	0.000000    	                	;
 NODE_4726010    	217.0439    	0.002500    	                	;
 NODE_4731613    	201.5173    	0.006250    	                	;
 NODE_4726113    	219.1986    	0.000000    	                	;
 NODE_4731669    	203.6798    	0.000000    	                	;
 NODE_4726055    	218.1938    	0.000000    	                	;
 NODE_4726084    	219.4181    	0.002500    	                	;
 NODE_4731692    	203.8866    	0.000000    	                	;
 NODE_4731567    	201.9628    	0.000000    	                	;
 NODE_4898542    	220.4163    	0.000000    	                	;
 NODE_4726131    	219.4120    	0.000000    	                	;
 NODE_4726065    	218.6598    	0.000417    	                	;
 NODE_4725977    	218.7885    	0.000000    	                	;
 NODE_4726108    	219.9223    	0.002917    	                	;
 NODE_4726038    	217.9177    	0.003333    	                	;
 NODE_4731617    	202.2078    	0.001250    	                	;
 NODE_4725997    	216.9277    	0.000000    	                	;
 NODE_4725958    	219.2661    	0.003750    	                	;
 NODE_4731546    	205.4877    	0.007500    	                	;
 NODE_4725964    	218.5315    	0.002083    	                	;
 NODE_4726105    	219.7649    	0.000000    	                	;
 NODE_4731654    	202.2976    	0.000417    	                	;
 NODE_4731645    	203.1643    	0.005417    	                	;
 NODE_4725947    	218.6400    	0.001667    	                	;
 NODE_4731517    	202.7052    	0.001667    	                	;
 NODE_4731609    	201.7876    	0.000417    	                	;
 NODE_4731577    	202.9366    	0.001667    	                	;
 NODE_4731508    	200.5078    	0.000000    	                	;
 NODE_4731521    	203.2038    	0.002917    	                	;
 NODE_4731666    	203.7802    	0.000000    	                	;
 NODE_4726104    	220.1973    	0.000000    	                	;
 NODE_4726040    	217.9701    	0.002500    	                	;
 NODE_4731599    	205.4297    	0.000417    	                	;
 NODE_4731552    	202.0843    	0.005000    	                	;
 NODE_4726119    	219.3146    	0.002917    	                	;
 NODE_4726148    	218.4173    	0.002083    	                	;
 NODE_4726067    	217.9742    	0.000000    	                	;
 NODE_4726139    	218.0065    	0.002917    	                	;
 NODE_4731499    	202.8990    	0.000000    	                	;
 NODE_4731660    	205.6729    	0.000000    	                	;
 NODE_4731558    	203.9300    	0.000000    	                	;
 NODE_4726045    	217.9171    	0.002917    	                	;
 NODE_4726005    	219.2518    	0.000000    	                	;
 NODE_4726135    	216.2130    	0.000000    	                	;
 NODE_4726096    	219.2582    	0.000000    	                	;
 NODE_4726091    	219.1229    	0.004167    	                	;
 NODE_4731661    	205.9635    	0.005000    	                	;
 NODE_4731578    	203.5275    	0.004583    	                	;
 NODE_4726029    	220.1621    	0.000000    	                	;
 NODE_4725956    	218.6816    	0.000833    	                	;
 NODE_4726078    	219.1626    	0.000417    	                	;
 NODE_4726073    	219.6529    	0.002917    	                	;
 NODE_4731548    	205.0071    	0.003750    	                	;
 NODE_4731686    	204.3043    	0.000000    	                	;
 NODE_4731676    	203.2915    	0.000000    	                	;
 NODE_4731627    	203.2500    	0.004167    	                	;
 NODE_4725982    	218.5628    	0.090000    	                	;
 NODE_4731631    	202.9128    	0.010000    	                	;
 NODE_4731514    	203.0860    	0.006250    	                	;
 NODE_4726033    	218.8440    	0.002500    	                	;
 NODE_4731642    	204.7064    	0.003333    	                	;
 NODE_4731605    	202.5024    	0.000000    	                	;
 NODE_4726126    	219.2913    	0.003333    	                	;
 NODE_4731493    	203.3224    	0.000833    	                	;
 NODE_4726100    	219.2990    	0.002500    	                	;
 NODE_4731596    	203.3722    	0.005000    	                	;
 NODE_4725981    	218.8974    	0.002917    	                	;
 NODE_4725970    	218.4724    	0.000417    	                	;
 NODE_4725985    	218.4387    	0.000417    	                	;
 NODE_4731532    	203.9123    	0.001667    	                	;
 NODE_4731619    	202.0753    	0.000000    	                	;
 NODE_4731504    	203.7583    	0.003750    	                	;
 NODE_4726057    	217.9549    	0.004583    	                	;
 NODE_4731575    	202.8103    	0.002917    	                	;
 NODE_4726041    	217.8954    	0.005000    	                	;
 NODE_4726058    	217.7542    	0.003333    	                	;
 NODE_4731522    	201.9961    	0.006667    	                	;
 NODE_4726129    	217.4318    	0.000000    	                	;
 NODE_4726125    	219.3319    	0.003750    	                	;
 NODE_4726047    	217.9811    	0.007917    	                	;
 NODE_4726003    	218.4226    	0.000417    	                	;
 NODE_4726094    	219.8084    	0.000000    	                	;
 NODE_4731647    	203.1330    	0.001667    	                	;
 NODE_4725975    	218.6382    	0.000417    	                	;
 NODE_4726101    	219.1839    	0.000417    	                	;
 NODE_4731677    	203.3131    	0.000000    	                	;
 NODE_4731632    	203.0779    	0.002500    	                	;
 NODE_4731586    	204.1489    	0.000000    	                	;
 NODE_4731576    	204.9424    	0.002917    	                	;
 NODE_4731488    	202.9111    	0.005833    	                	;
 NODE_4725980    	218.8976    	0.002917    	                	;
 NODE_4725976    	218.7039    	0.001667    	                	;
 NODE_4725968    	215.6074    	0.000000    	                	;
 NODE_4726083    	219.8054    	0.000417    	                	;
 NODE_4731679    	200.0477    	0.000000    	                	;
 NODE_4726020    	220.5312    	0.000000    	                	;
 NODE_4725994    	216.7547    	0.000000    	                	;
 NODE_4726159    	219.5097    	0.000000    	                	;
 NODE_4726046    	217.9301    	0.005833    	                	;
 NODE_4731603    	201.2507    	0.000000    	                	;
 NODE_4726158    	219.6307    	0.001250    	                	;
 NODE_4731685    	203.2821    	0.000000    	                	;
 NODE_4731662    	205.6865    	0.000000    	                	;
 NODE_4731495    	199.6446    	0.000000    	                	;
 NODE_4726162    	219.2340    	0.000833    	                	;
 NODE_4726114    	219.3331    	0.000000    	                	;
 NODE_4726141    	217.5451    	0.004167    	                	;
 NODE_4725963    	218.6639    	0.002500    	                	;
 NODE_4726144    	216.7271    	0.004167    	                	;
 NODE_4726037    	218.1492    	0.001250    	                	;
 NODE_4725974    	218.5905    	0.003750    	                	;
 NODE_4726051    	219.8194    	0.000000    	                	;
 NODE_4731644    	204.6528    	0.000417    	                	;
 NODE_4731601    	200.1811    	0.003333    	                	;
 NODE_4726156    	219.5788    	0.000000    	                	;
 NODE_4731571    	206.0110    	0.000000    	                	;
 NODE_4731547    	205.8684    	0.000000    	                	;
 NODE_4731542    	203.6675    	0.000000    	                	;
 NODE_4726019    	220.4128    	0.000000    	                	;
 NODE_4726064    	218.8109    	0.000000    	                	;
 NODE_4731672    	206.7620    	0.000000    	                	;
 NODE_4726128    	219.2924    	0.005833    	                	;
 NODE_4731604    	201.7901    	0.006667    	                	;
 NODE_4731511    	203.9858    	0.001667    	                	;
 NODE_4726112    	219.3664    	0.000000    	                	;
 NODE_4726143    	217.1271    	0.004167    	                	;
 NODE_4731630    	202.9702    	0.002083    	                	;
 NODE_4531395    	220.6182    	0.000000    	                	;
 NODE_4531395_1  	220.6050    	0.000000    	                	;
 NODE_4731710    	202.8317    	0.000000    	                	;
 NODE_4543542    	215.5902    	0.000000    	                	;
 NODE_4543542_1  	215.5654    	0.000000    	                	;
 NODE_4584445    	202.6810    	0.000000    	                	;
 NODE_4584445_1  	202.6910    	0.000000    	                	;
 NODE_4731680    	201.7988    	0.000000    	                	;
 NODE_4531397    	220.8488    	0.000000    	                	;
 NODE_4531397_1  	220.8573    	0.000000    	                	;
 NODE_4584447    	203.3064    	0.000000    	                	;
 NODE_4584447_1  	203.2767    	0.000000    	                	;
 NODE_4531399    	216.4281    	0.000000    	                	;
 NODE_4531399_1  	216.4256    	0.000000    	                	;
 NODE_4584451    	203.3168    	0.000000    	                	;
 NODE_4584451_1  	203.2871    	0.000000    	                	;
 NODE_4531409    	218.7810    	0.000000    	                	;
 NODE_4531409_1  	218.7618    	0.000000    	                	;
 NODE_4726167    	218.5340    	0.000000    	                	;
 NODE_4726172    	219.0087    	0.000000    	                	;
 NODE_4531407    	218.5990    	0.000000    	                	;
 NODE_4531407_1  	218.6183    	0.000000    	                	;
 NODE_4531403    	216.4422    	0.000000    	                	;
 NODE_4531403_1  	216.4397    	0.000000    	                	;
 NODE_4584446    	202.6765    	0.000000    	                	;
 NODE_4584446_1  	202.6864    	0.000000    	                	;
 NODE_4531674    	219.0119    	0.000000    	                	;
 NODE_4531674_1  	219.0316    	0.000000    	                	;
 NODE_4731712    	202.8935    	0.000000    	                	;
 NODE_4731714    	203.3133    	0.000000    	                	;
 NODE_4531405    	218.5933    	0.000000    	                	;
 NODE_4531405_1  	218.6126    	0.000000    	                	;
 NODE_4731707    	203.3133    	0.000000    	                	;
 NODE_4726189    	220.6157    	0.000000    	                	;
 NODE_4726175    	221.0899    	0.000000    	                	;
 NODE_4731701    	203.3100    	0.000000    	                	;
 NODE_4584440    	202.8269    	0.000000    	                	;
 NODE_4584440_1  	202.7993    	0.000000    	                	;
 NODE_4726180    	215.6847    	0.000000    	                	;
 NODE_4726188    	216.4373    	0.000000    	                	;
 NODE_4531401    	216.4325    	0.000000    	                	;
 NODE_4531401_1  	216.4299    	0.000000    	                	;
 NODE_4531393    	220.6132    	0.000000    	                	;
 NODE_4531393_1  	220.6000    	0.000000    	                	;
 NODE_4726165    	218.9586    	0.000000    	                	;
 NODE_4531413    	219.1566    	0.000000    	                	;
 NODE_4531413_1  	219.1819    	0.000000    	                	;
 NODE_4726182    	218.5991    	0.000000    	                	;
 NODE_4726173    	217.2342    	0.000000    	                	;
 NODE_4898546    	215.7029    	0.000000    	                	;
 NODE_4726168    	218.7788    	0.000000    	                	;
 NODE_4584439    	202.8331    	0.000000    	                	;
 NODE_4584439_1  	202.8050    	0.000000    	                	;
 NODE_4726186    	217.2427    	0.000000    	                	;
 NODE_4531411    	219.1489    	0.000000    	                	;
 NODE_4531411_1  	219.1741    	0.000000    	                	;
 NODE_4584631    	199.5590    	0.000000    	                	;
 NODE_4584631_1  	199.5876    	0.000000    	                	;
 NODE_4584441    	203.1138    	0.000000    	                	;
 NODE_4584441_1  	203.1121    	0.000000    	                	;
 NODE_4731705    	200.8685    	0.000000    	                	;
 NODE_4584444    	203.3117    	0.000000    	                	;
 NODE_4584444_1  	203.3173    	0.000000    	                	;
 NODE_4731703    	201.9063    	0.000000    	                	;
 NODE_4726169    	214.8021    	0.000000    	                	;
 NODE_4531391    	220.6180    	0.000000    	                	;
 NODE_4531391_1  	220.6048    	0.000000    	                	;
 NODE_4584448    	203.3135    	0.000000    	                	;
 NODE_4584448_1  	203.2838    	0.000000    	                	;
 NODE_4726170    	215.5930    	0.000000    	                	;
 NODE_4584450    	202.8906    	0.000000    	                	;
 NODE_4584450_1  	202.8846    	0.000000    	                	;
 NODE_4725991    	216.9842    	0.000000    	                	;
 NODE_4731711    	203.1109    	0.000000    	                	;
 NODE_4584449    	202.8878    	0.000000    	                	;
 NODE_4584449_1  	202.8818    	0.000000    	                	;
 NODE_4531427    	217.2350    	0.000000    	                	;