[TITLE]
Converted from Epanet to Staci, case name: agyagosszergeny.spr


[JUNCTIONS]
;ID              	Elev        	Demand      	Pattern         
 NODE_1332805    	118.5936    	0.000000    	                	;
 NODE_1321454    	116.4806    	0.000000    	                	;
 NODE_1318066    	119.7538    	0.000000    	                	;
 NODE_1335393    	119.3669    	0.000000    	                	;
 NODE_1335394    	119.9243    	0.000000    	                	;
 NODE_1335419    	119.5363    	0.000000    	                	;
 NODE_1332043    	118.6839    	0.000000    	                	;
 NODE_1332242    	118.9971    	0.000000    	                	;
 NODE_1332264    	117.6967    	0.000000    	                	;
 NODE_1317422    	119.7344    	0.000000    	                	;
 NODE_1334683    	118.1144    	0.000000    	                	;
 NODE_1318690    	117.3528    	0.000000    	                	;
 NODE_1318700    	120.1223    	0.002083    	                	;
 NODE_1317601    	119.4353    	0.000000    	                	;
 NODE_1332052    	119.4120    	0.000417    	                	;
 NODE_1316568    	119.7995    	0.000000    	                	;
 NODE_1332997    	118.0192    	0.000000    	                	;
 NODE_1338607    	119.3624    	0.000000    	                	;
 NODE_1332246    	119.1820    	0.000000    	                	;
 NODE_1332828    	116.6931    	0.002083    	                	;
 NODE_1332829    	119.8167    	0.000000    	                	;
 NODE_1332790    	117.3646    	0.000000    	                	;
 NODE_1318688    	116.9559    	0.000000    	                	;
 NODE_1334689    	117.7172    	0.000000    	                	;
 NODE_1334843    	118.1014    	0.000000    	                	;
 NODE_1334859    	119.8727    	0.000000    	                	;
 NODE_1335416    	118.8613    	0.000000    	                	;
 NODE_1338575    	118.4962    	0.010000    	                	;
 NODE_1320054    	118.6732    	0.000000    	                	;
 NODE_1335404    	119.9144    	0.000000    	                	;
 NODE_1331219    	119.3361    	0.000000    	                	;
 NODE_1318695    	117.2404    	0.000000    	                	;
 NODE_1332046    	118.2514    	0.000000    	                	;
 NODE_1315575    	120.2457    	0.000000    	                	;
 NODE_1334682    	117.9951    	0.000000    	                	;
 NODE_1332254    	119.2727    	0.000000    	                	;
 NODE_1333001    	118.0558    	0.000000    	                	;
 NODE_1336205    	119.4502    	0.011250    	                	;
 NODE_1334686    	116.9390    	0.000000    	                	;
 NODE_1338022    	118.8738    	0.000000    	                	;
 NODE_1332804    	117.2587    	0.000000    	                	;
 NODE_1317177    	118.3586    	0.000000    	                	;
 NODE_1337588    	117.9983    	0.000000    	                	;
 NODE_1333678    	118.1793    	0.004167    	                	;
 NODE_1318693    	117.2133    	0.000000    	                	;
 NODE_1335409    	119.5156    	0.000000    	                	;
 NODE_1335402    	119.6927    	0.000000    	                	;
 NODE_1332996    	118.1613    	0.000000    	                	;
 NODE_1318702    	119.2704    	0.000000    	                	;
 NODE_1332244    	119.1270    	0.001667    	                	;
 NODE_1332257    	119.5434    	0.001667    	                	;
 NODE_1332789    	117.4862    	0.000000    	                	;
 NODE_1333004    	118.0185    	0.000000    	                	;
 NODE_1335992    	119.8771    	0.000000    	                	;
 NODE_1320907    	118.9940    	0.001250    	                	;
 NODE_1317175    	119.7288    	0.002083    	                	;
 NODE_1334177    	118.1660    	0.000000    	                	;
 NODE_1334183    	120.0384    	0.000000    	                	;
 NODE_1333671    	118.9432    	0.001667    	                	;
 NODE_1338166    	119.5639    	0.000000    	                	;
 NODE_1331220    	119.4696    	0.000000    	                	;
 NODE_1316726    	118.1130    	0.000000    	                	;
 NODE_1338171    	118.5370    	0.000000    	                	;
 NODE_1322753    	119.7169    	0.000000    	                	;
 NODE_1316572    	119.1655    	0.000000    	                	;
 NODE_1332993    	119.8520    	0.000000    	                	;
 NODE_1334179    	117.3910    	0.000000    	                	;
 NODE_1317426    	118.3533    	0.000000    	                	;
 NODE_1334684    	117.9899    	0.000000    	                	;
 NODE_1332042    	118.3368    	0.000000    	                	;
 NODE_1332795    	119.8919    	0.000000    	                	;
 NODE_1343318    	118.0979    	0.000000    	                	;
 NODE_1317424    	118.7950    	0.000000    	                	;
 NODE_1332057    	119.3376    	0.000000    	                	;
 NODE_1332801    	119.3521    	0.000000    	                	;
 NODE_1335387    	119.1928    	0.000000    	                	;
 NODE_1332245    	119.1450    	0.000000    	                	;
 NODE_1333673    	120.3664    	0.000000    	                	;
 NODE_1336206    	117.6559    	0.000000    	                	;
 NODE_1318698    	120.1744    	0.000000    	                	;
 NODE_1334184    	119.4980    	0.000000    	                	;
 NODE_1332810    	118.8445    	0.000000    	                	;
 NODE_1316563    	118.5568    	0.000000    	                	;
 NODE_1338573    	119.3390    	0.000000    	                	;
 NODE_1316577    	118.0474    	0.000000    	                	;
 NODE_1332809    	119.4120    	0.000000    	                	;
 NODE_1327110    	116.2140    	0.000000    	                	;
 NODE_1335982    	119.3729    	0.000000    	                	;
 NODE_1336209    	120.2010    	0.000000    	                	;
 NODE_1338579    	119.3738    	0.004167    	                	;
 NODE_1315577    	119.9234    	0.000000    	                	;
 NODE_1317427    	118.9594    	0.000000    	                	;
 NODE_1334855    	117.9120    	0.000000    	                	;
 NODE_1338578    	118.5892    	0.000000    	                	;
 NODE_1332260    	117.8515    	0.005417    	                	;
 NODE_1333687    	119.9573    	0.000000    	                	;
 NODE_1335398    	119.5789    	0.000000    	                	;
 NODE_1315574    	118.5688    	0.000000    	                	;
 NODE_1332792    	117.2547    	0.000000    	                	;
 NODE_1317889    	119.8906    	0.000000    	                	;
 NODE_1335403    	119.8618    	0.000000    	                	;
 NODE_1317174    	118.8578    	0.000000    	                	;
 NODE_1332243    	119.0482    	0.000000    	                	;
 NODE_1316574    	119.3086    	0.000000    	                	;
 NODE_1334852    	118.0411    	0.000000    	                	;
 NODE_1334680    	117.5675    	0.000000    	                	;
 NODE_1332815    	117.1539    	0.000000    	                	;
 NODE_1318064    	117.2721    	0.000000    	                	;
 NODE_1334198    	117.2686    	0.000000    	                	;
 NODE_1335400    	119.3142    	0.000000    	                	;
 NODE_1316566    	119.4267    	0.000000    	                	;
 NODE_1316571    	119.1287    	0.000000    	                	;
 NODE_1332255    	119.3059    	0.000000    	                	;
 NODE_1332796    	119.2265    	0.000000    	                	;
 NODE_1321439    	118.5291    	0.000000    	                	;
 NODE_1318691    	117.8492    	0.000000    	                	;
 NODE_1335410    	119.5380    	0.000000    	                	;
 NODE_1332812    	118.7419    	0.000833    	                	;
 NODE_1338574    	120.2445    	0.000000    	                	;
 NODE_1338577    	119.9887    	0.000000    	                	;
 NODE_1318065    	118.4506    	0.000000    	                	;
 NODE_1335978    	118.1087    	0.000000    	                	;
 NODE_1335414    	118.7510    	0.000000    	                	;
 NODE_1316045    	119.0826    	0.000000    	                	;
 NODE_1335993    	118.7593    	0.000000    	                	;
 NODE_1332821    	120.3003    	0.000000    	                	;
 NODE_1317423    	118.0798    	0.000000    	                	;
 NODE_1318026    	118.0706    	0.000000    	                	;
 NODE_1321449    	118.2274    	0.000000    	                	;
 NODE_1320602    	118.4396    	0.000000    	                	;
 NODE_1333276    	117.2903    	0.002500    	                	;
 NODE_1334192    	118.1386    	0.000000    	                	;
 NODE_1333285    	118.8673    	0.000000    	                	;
 NODE_1333691    	118.8969    	0.000000    	                	;
 NODE_1336210    	119.1138    	0.000000    	                	;
 NODE_1317428    	118.8262    	0.002500    	                	;
 NODE_1338244    	119.7905    	0.000000    	                	;
 NODE_1332251    	119.3210    	0.000000    	                	;
 NODE_1327109    	119.8582    	0.000000    	                	;
 NODE_1318067    	119.0740    	0.000000    	                	;
 NODE_1333668    	120.1163    	0.025000    	                	;
 NODE_1317602    	118.5792    	0.000000    	                	;
 NODE_1334180    	117.2595    	0.000000    	                	;
 NODE_1335991    	119.9253    	0.000000    	                	;
 NODE_1333680    	117.5968    	0.000000    	                	;
 NODE_1334861    	119.5745    	0.000000    	                	;
 NODE_1334174    	119.4084    	0.000000    	                	;
 NODE_1333277    	118.4102    	0.000000    	                	;
 NODE_1317605    	118.2100    	0.000000    	                	;
 NODE_1332056    	120.2579    	0.000000    	                	;
 NODE_1316727    	118.5472    	0.000000    	                	;
 NODE_1338610    	117.9295    	0.000000    	                	;
 NODE_1332261    	117.9539    	0.000000    	                	;
 NODE_1335488    	117.1074    	0.000000    	                	;
 NODE_1335395    	118.8787    	0.000000    	                	;
 NODE_1332818    	118.4236    	0.000000    	                	;
 NODE_1332811    	118.2525    	0.000000    	                	;
 NODE_1331221    	120.1153    	0.000000    	                	;
 NODE_1315579    	119.8378    	0.000000    	                	;
 NODE_1334188    	117.6771    	0.000000    	                	;
 NODE_1335392    	119.4772    	0.000000    	                	;
 NODE_8585940    	116.1836    	0.000000    	                	;
 NODE_1332808    	119.5352    	0.000000    	                	;
 NODE_1334849    	117.2411    	0.001250    	                	;
 NODE_1335386    	118.6114    	0.000000    	                	;
 NODE_1338036    	119.3084    	0.000000    	                	;
 NODE_1334681    	117.9795    	0.000000    	                	;
 NODE_1318692    	118.0388    	0.000000    	                	;
 NODE_1334870    	119.5886    	0.000000    	                	;
 NODE_1335412    	119.7592    	0.000000    	                	;
 NODE_1332044    	118.7331    	0.000000    	                	;
 NODE_1332048    	119.1222    	0.000000    	                	;
 NODE_1332256    	119.1894    	0.000000    	                	;
 NODE_1337892    	117.5140    	0.000000    	                	;
 NODE_1335970    	120.1015    	0.000000    	                	;
 NODE_1338576    	119.1836    	0.000000    	                	;
 NODE_1334166    	117.1825    	0.000000    	                	;
 NODE_1336211    	119.4065    	0.000000    	                	;
 NODE_1335382    	118.8020    	0.000000    	                	;
 NODE_1332799    	120.3893    	0.000000    	                	;
 NODE_1333682    	116.4125    	0.000000    	                	;
 NODE_1333002    	118.3830    	0.000000    	                	;
 NODE_1334690    	117.3242    	0.000000    	                	;
 NODE_1335417    	119.2703    	0.000000    	                	;
 NODE_1333003    	119.5885    	0.000000    	                	;
 NODE_1317677    	119.2746    	0.000000    	                	;
 NODE_1334872    	119.4477    	0.000000    	                	;
 NODE_1318689    	117.5874    	0.002500    	                	;
 NODE_1334864    	120.1308    	0.000000    	                	;
 NODE_1332802    	119.1493    	0.000000    	                	;
 NODE_1334871    	119.7482    	0.000000    	                	;
 NODE_1335407    	119.7150    	0.000000    	                	;
 NODE_1335422    	118.7733    	0.000000    	                	;
 NODE_1333672    	119.6420    	0.000000    	                	;
 NODE_1334195    	116.2853    	0.000000    	                	;
 NODE_1335408    	119.4842    	0.000000    	                	;
 NODE_1334173    	119.4785    	0.000000    	                	;
 NODE_1316573    	119.2732    	0.000000    	                	;
 NODE_1317600    	117.2102    	0.000000    	                	;
 NODE_1317604    	117.5976    	0.000000    	                	;
 NODE_1333676    	117.7968    	0.000000    	                	;
 NODE_1332825    	116.8208    	0.000000    	                	;
 NODE_1332250    	119.3652    	0.000000    	                	;
 NODE_1315578    	119.3388    	0.000000    	                	;
 NODE_1335986    	118.7910    	0.000000    	                	;
 NODE_1332817    	117.9282    	0.000000    	                	;
 NODE_1333667    	119.4313    	0.000000    	                	;
 NODE_1335396    	117.9028    	0.000000    	                	;
 NODE_1332053    	119.9822    	0.000000    	                	;
 NODE_1334182    	117.3940    	0.000000    	                	;
 NODE_1322971    	119.0557    	0.000000    	                	;
 NODE_1332816    	118.8111    	0.000000    	                	;
 NODE_1332803    	119.1966    	0.000000    	                	;
 NODE_1327288    	117.9035    	0.000000    	                	;
 NODE_1318028    	116.7134    	0.005417    	                	;
 NODE_1318696    	118.5556    	0.000000    	                	;
 NODE_1334862    	119.8238    	0.000000    	                	;
 NODE_1316041    	119.9049    	0.001667    	                	;
 NODE_1332050    	119.3751    	0.000000    	                	;
 NODE_1332054    	120.2136    	0.000000    	                	;
 NODE_1332797    	117.5328    	0.000000    	                	;
 NODE_1333674    	118.3781    	0.000000    	                	;
 NODE_1317603    	118.8964    	0.000000    	                	;
 NODE_1317429    	118.3649    	0.000000    	                	;
 NODE_1317430    	117.2659    	0.000000    	                	;
 NODE_1333280    	119.3368    	0.000000    	                	;
 NODE_1332247    	119.1963    	0.000000    	                	;
 NODE_1317419    	117.3843    	0.000000    	                	;
 NODE_1318479    	117.3637    	0.000000    	                	;
 NODE_1335399    	119.3325    	0.000000    	                	;
 NODE_1334178    	118.0599    	0.000000    	                	;
 NODE_1335401    	119.2208    	0.000000    	                	;
 NODE_1332045    	118.5179    	0.000000    	                	;
 NODE_1333685    	117.6569    	0.000000    	                	;
 NODE_1334172    	116.3294    	0.000000    	                	;
 NODE_1316043    	119.9052    	0.000000    	                	;
 NODE_1334189    	118.1414    	0.000000    	                	;
 NODE_1318480    	118.0495    	0.000000    	                	;
 NODE_1335415    	118.7751    	0.000000    	                	;
 NODE_1332258    	119.4841    	0.000000    	                	;
 NODE_1332827    	116.5393    	0.000000    	                	;
 NODE_1334685    	118.0964    	0.000000    	                	;
 NODE_1338238    	119.5459    	0.000000    	                	;
 NODE_1331218    	116.9652    	0.000000    	                	;
 NODE_1332049    	119.1279    	0.000000    	                	;
 NODE_1318694    	117.9883    	0.000000    	                	;
 NODE_1318699    	120.1754    	0.000000    	                	;
 NODE_1335388    	118.9318    	0.000000    	                	;
 NODE_1333282    	119.1086    	0.000000    	                	;
 NODE_1332058    	118.9502    	0.000000    	                	;
 NODE_1318023    	118.5505    	0.000000    	                	;
 NODE_1334691    	117.1577    	0.000000    	                	;
 NODE_1334854    	117.2455    	0.000000    	                	;
 NODE_1336208    	118.7487    	0.000000    	                	;
 NODE_1334190    	118.0454    	0.000000    	                	;
 NODE_1335384    	118.9880    	0.000000    	                	;
 NODE_1332253    	119.2192    	0.000000    	                	;
 NODE_1332262    	117.9091    	0.000000    	                	;
 NODE_1334176    	117.7272    	0.000000    	                	;
 NODE_1334186    	118.2882    	0.000000    	                	;
 NODE_1334860    	120.0051    	0.000000    	                	;
 NODE_1334168    	119.4710    	0.000000    	                	;
 NODE_1334679    	117.4570    	0.000000    	                	;
 NODE_1335421    	118.8404    	0.000000    	                	;
 NODE_1333686    	117.3423    	0.000000    	                	;
 NODE_1333670    	119.7989    	0.000000    	                	;
 NODE_1334169    	119.3310    	0.000000    	                	;
 NODE_1334869    	118.4008    	0.000000    	                	;
 NODE_1315576    	119.3385    	0.000000    	                	;
 NODE_1334191    	118.1182    	0.000000    	                	;
 NODE_1334687    	116.7321    	0.000000    	                	;
 NODE_1334853    	117.6518    	0.000000    	                	;
 NODE_1334857    	119.3973    	0.000000    	                	;
 NODE_1318701    	118.3804    	0.000000    	                	;
 NODE_1337890    	118.5774    	0.000000    	                	;
 NODE_1335385    	118.4990    	0.000000    	                	;
 NODE_1338033    	118.8110    	0.002083    	                	;
 NODE_1332248    	119.2684    	0.000000    	                	;
 NODE_1332791    	118.3450    	0.000000    	                	;
 NODE_1333664    	118.9067    	0.000000    	                	;
 NODE_1317420    	119.8364    	0.000000    	                	;
 NODE_1315580    	119.3238    	0.000000    	                	;
 NODE_1320065    	120.0228    	0.000000    	                	;
 NODE_1333666    	119.9681    	0.000417    	                	;
 NODE_1333677    	118.1370    	0.000000    	                	;
 NODE_1333688    	120.2028    	0.007500    	                	;
 NODE_1334167    	118.0903    	0.000000    	                	;
 NODE_1327290    	117.2176    	0.000000    	                	;
 NODE_1335411    	119.4603    	0.000000    	                	;
 NODE_1334197    	116.9211    	0.000417    	                	;
 NODE_1332252    	119.3197    	0.000000    	                	;
 NODE_1334856    	118.3093    	0.000000    	                	;
 NODE_1334866    	120.1373    	0.000000    	                	;
 NODE_1335383    	118.6832    	0.000000    	                	;
 NODE_1316565    	118.7398    	0.000000    	                	;
 NODE_1333690    	119.8874    	0.000000    	                	;
 NODE_1333675    	118.2948    	0.000000    	                	;
 NODE_1331217    	117.3233    	0.000000    	                	;
 NODE_1332998    	117.6268    	0.000000    	                	;
 NODE_1334187    	117.6318    	0.000000    	                	;
 NODE_1338240    	120.1886    	0.000000    	                	;
 NODE_1332055    	120.2230    	0.000000    	                	;
 NODE_1316569    	119.5590    	0.000000    	                	;
 NODE_1333679    	117.8151    	0.000000    	                	;
 NODE_1337885    	117.8119    	0.000000    	                	;
 NODE_1332820    	117.9969    	0.000000    	                	;
 NODE_1317883    	116.8055    	0.003750    	                	;
 NODE_1334185    	119.3027    	0.005000    	                	;
 NODE_1331271    	119.7651    	0.000000    	                	;
 NODE_1333684    	118.0503    	0.000000    	                	;
 NODE_1335994    	119.1237    	0.000000    	                	;
 NODE_1318027    	120.1504    	0.000000    	                	;
 NODE_1333681    	117.4630    	0.000000    	                	;
 NODE_1334850    	117.1126    	0.000000    	                	;
 NODE_1318025    	117.6860    	0.000000    	                	;
 NODE_1334851    	117.8818    	0.000000    	                	;
 NODE_1317179    	119.6568    	0.000000    	                	;
 NODE_1333689    	120.1722    	0.000000    	                	;
 NODE_1334848    	117.3074    	0.000000    	                	;
 NODE_1333283    	116.2556    	0.000000    	                	;
 NODE_1332051    	119.4077    	0.000000    	                	;
 NODE_1316570    	118.9972    	0.000000    	                	;
 NODE_1338246    	119.1834    	0.000000    	                	;
 NODE_1333478    	117.8456    	0.000000    	                	;
 NODE_1320017    	118.8248    	0.000000    	                	;
 NODE_1335995    	120.2251    	0.000000    	                	;
 NODE_1317176    	118.3837    	0.000000    	                	;
 NODE_1332822    	119.5657    	0.000000    	                	;
 NODE_1335389    	120.2240    	0.000000    	                	;
 NODE_1334846    	118.0668    	0.000000    	                	;
 NODE_1334865    	120.1634    	0.000000    	                	;
 NODE_1333669    	120.2563    	0.000000    	                	;
 NODE_1333281    	119.2642    	0.000000    	                	;
 NODE_1332806    	118.8667    	0.000000    	                	;
 NODE_1332994    	120.3570    	0.002917    	                	;
 NODE_1332263    	117.6758    	0.000000    	                	;
 NODE_1332813    	119.6663    	0.000000    	                	;
 NODE_1334688    	116.7418    	0.000000    	                	;
 NODE_1334863    	120.0979    	0.000000    	                	;
 NODE_1338243    	118.7847    	0.000000    	                	;
 NODE_1332826    	118.0033    	0.000000    	                	;
 NODE_1332995    	117.1448    	0.000000    	                	;
 NODE_1336207    	119.7270    	0.000000    	                	;
 NODE_1320062    	119.8214    	0.000000    	                	;
 NODE_1316047    	118.2901    	0.000000    	                	;
 NODE_1317425    	119.5696    	0.000000    	                	;
 NODE_1334867    	120.1209    	0.000000    	                	;
 NODE_1334845    	117.9865    	0.000000    	                	;
 NODE_1332249    	119.2125    	0.000000    	                	;
 NODE_1334196    	116.6452    	0.000000    	                	;
 NODE_1332259    	119.4445    	0.000000    	                	;
 NODE_1335406    	119.3620    	0.000000    	                	;
 NODE_1317172    	119.6313    	0.000000    	                	;
 NODE_1333665    	119.1157    	0.000000    	                	;
 NODE_1316044    	118.8201    	0.000000    	                	;
 NODE_1332992    	118.9343    	0.000000    	                	;
 NODE_1332800    	119.3406    	0.000000    	                	;
 NODE_1334844    	118.0239    	0.000000    	                	;
 NODE_1322758    	120.0629    	0.000000    	                	;
 NODE_1335413    	119.9492    	0.000000    	                	;
 NODE_1320058    	119.4656    	0.000000    	                	;
 NODE_1333000    	116.5688    	0.000000    	                	;
 NODE_1338247    	119.3362    	0.000000    	                	;
 NODE_1334842    	117.0928    	0.000000    	                	;
 NODE_1338602    	118.9401    	0.000000    	                	;
 NODE_1338606    	118.8186    	0.000000    	                	;
 NODE_1332794    	118.0101    	0.000000    	                	;
 NODE_1333005    	119.3195    	0.000000    	                	;
 NODE_1317173    	119.1600    	0.000000    	                	;
 NODE_1334858    	119.4167    	0.000000    	                	;
 NODE_1318697    	119.6477    	0.000000    	                	;
 NODE_1335390    	119.2767    	0.000000    	                	;
 NODE_1334171    	116.4329    	0.000000    	                	;
 NODE_1317178    	117.7412    	0.000000    	                	;
 NODE_1334170    	119.3501    	0.000000    	                	;
 NODE_1334194    	119.1879    	0.000000    	                	;
 NODE_1333275    	118.1794    	0.000000    	                	;
 NODE_1322749    	117.4234    	0.000000    	                	;
 NODE_1335405    	119.2242    	0.000000    	                	;
 NODE_1316046    	118.9206    	0.000000    	                	;
 NODE_1316576    	119.6123    	0.000000    	                	;
 NODE_1332047    	119.3175    	0.000000    	                	;
 NODE_1338170    	117.4840    	0.000000    	                	;
 NODE_1332798    	119.8435    	0.000000    	                	;
 NODE_1334847    	117.6923    	0.000000    	                	;
 NODE_1335420    	119.0224    	0.000000    	                	;
 NODE_1317421    	119.9780    	0.000000    	                	;
 NODE_1332819    	117.8856    	0.000000    	                	;
 NODE_1332807    	118.5273    	0.000000    	                	;
 NODE_1321444    	119.4125    	0.000000    	                	;
 NODE_1333661    	116.1026    	0.000000    	                	;
 NODE_1315573    	119.0071    	0.000000    	                	;
 NODE_1338601    	118.5089    	0.000000    	                	;
 NODE_1316042    	119.5718    	0.000000    	                	;
 NODE_1332059    	118.8821    	0.000000    	                	;
 NODE_1316564    	118.8451    	0.000000    	                	;
 NODE_1332793    	117.2302    	0.000000    	                	;
 NODE_1335418    	119.4056    	0.000000    	                	;
 NODE_1316575    	119.3329    	0.000000    	                	;
 NODE_1333284    	119.2676    	0.000000    	                	;
 NODE_1333278    	119.9438    	0.000000    	                	;
 NODE_1335391    	119.0846    	0.000833    	                	;
 NODE_1332824    	119.5112    	0.000000    	                	;
 NODE_1333683    	117.4789    	0.000000    	                	;
 NODE_1334868    	118.2912    	0.000000    	                	;
 NODE_1334175    	118.7770    	0.000000    	                	;
 NODE_1316567    	120.1802    	0.000000    	                	;
 NODE_11900      	118.4954    	0.000000    	                	;
 NODE_11900_1    	118.4854    	0.000000    	                	;
 NODE_11731      	119.7357    	0.000000    	                	;
 NODE_11731_1    	119.7787    	0.000000    	                	;
 NODE_1343348    	117.9067    	0.000000    	                	;
 NODE_12105      	119.3751    	0.000000    	                	;
 NODE_12105_1    	119.3471    	0.000000    	                	;
 NODE_12126      	120.1616    	0.000000    	                	;
 NODE_12126_1    	120.1550    	0.000000    	                	;
 NODE_11746      	117.6894    	0.000000    	                	;
 NODE_11746_1    	117.7034    	0.000000    	                	;
 NODE_12119      	120.2271    	0.000000    	                	;
 NODE_12119_1    	120.2161    	0.000000    	                	;
 NODE_1343308    	119.9793    	0.000000    	                	;
 NODE_1343295    	118.5039    	0.000000    	                	;
 NODE_1343291    	119.8282    	0.000000    	                	;
 NODE_11908      	118.3450    	0.000000    	                	;
 NODE_11908_1    	118.3070    	0.000000    	                	;
 NODE_12108      	119.9371    	0.000000    	                	;
 NODE_12108_1    	119.9021    	0.000000    	                	;
 NODE_11916      	119.0784    	0.000000    	                	;
 NODE_11916_1    	119.0774    	0.000000    	                	;
 NODE_1343293    	118.8728    	0.000000    	                	;
 NODE_11739      	118.1468    	0.000000    	                	;
 NODE_11739_1    	118.1468    	0.000000    	                	;
 NODE_12122      	117.7428    	0.000000    	                	;
 NODE_12122_1    	117.7301    	0.000000    	                	;
 NODE_1343292    	119.7817    	0.000000    	                	;
 NODE_12110      	119.9257    	0.000000    	                	;
 NODE_12110_1    	119.8980    	0.000000    	                	;
 NODE_11732      	119.8293    	0.000000    	                	;
 NODE_11732_1    	119.8245    	0.000000    	                	;
 NODE_1343288    	119.9321    	0.000000    	                	;
 NODE_281        	118.8565    	0.000000    	                	;
 NODE_12096      	118.2227    	0.000000    	                	;
 NODE_12096_1    	118.2427    	0.000000    	                	;
 NODE_1343332    	119.1925    	0.000000    	                	;
 NODE_12104      	119.8271    	0.000000    	                	;
 NODE_12104_1    	119.8344    	0.000000    	                	;
 NODE_11912      	120.2111    	0.000000    	                	;
 NODE_11912_1    	120.2131    	0.000000    	                	;
 NODE_1343337    	120.2248    	0.000000    	                	;
 NODE_12125      	120.1595    	0.000000    	                	;
 NODE_12125_1    	120.1539    	0.000000    	                	;
 NODE_11728      	118.4017    	0.000000    	                	;
 NODE_11728_1    	118.3880    	0.000000    	                	;
 NODE_12120      	120.2219    	0.000000    	                	;
 NODE_12120_1    	120.2109    	0.000000    	                	;
 NODE_11904      	119.2648    	0.000000    	                	;
 NODE_11904_1    	119.2748    	0.000000    	                	;
 NODE_12103      	119.8318    	0.000000    	                	;
 NODE_12103_1    	119.8148    	0.000000    	                	;
 NODE_12098      	118.2152    	0.000000    	                	;
 NODE_12098_1    	118.2352    	0.000000    	                	;
 NODE_11917      	119.0779    	0.000000    	                	;
 NODE_11917_1    	119.0769    	0.000000    	                	;
 NODE_11930      	119.2221    	0.000000    	                	;
 NODE_11930_1    	119.2232    	0.000000    	                	;
 NODE_12114      	118.4696    	0.000000    	                	;
 NODE_12114_1    	118.4659    	0.000000    	                	;
 NODE_12111      	119.1915    	0.000000    	                	;
 NODE_12111_1    	119.1892    	0.000000    	                	;
 NODE_1343289    	119.6409    	0.000000    	                	;
 NODE_11919      	118.8637    	0.000000    	                	;
 NODE_11919_1    	118.8297    	0.000000    	                	;
 NODE_1343357    	118.4664    	0.000000    	                	;