[TITLE]
Converted from Epanet to Staci, case name: alomhegy.spr


[JUNCTIONS]
;ID              	Elev        	Demand      	Pattern         
 NODE_1326245    	300.1895    	0.000000    	                	;
 NODE_1326246    	300.1927    	0.000000    	                	;
 NODE_1319516    	318.1836    	0.000833    	                	;
 NODE_1325376    	318.9183    	0.010325    	                	;
 NODE_1325377    	316.3759    	0.000000    	                	;
 NODE_1316558    	300.2509    	0.000000    	                	;
 NODE_1312737    	300.2141    	0.000000    	                	;
 NODE_1326247    	300.0418    	0.002083    	                	;
 NODE_1325380    	305.3469    	0.009267    	                	;
 NODE_1316653    	300.5613    	0.000821    	                	;
 NODE_1316191    	299.8127    	0.008333    	                	;
 NODE_1337100    	303.6861    	0.000000    	                	;
 NODE_1325945    	305.4711    	0.006217    	                	;
 NODE_1325373    	306.3523    	0.000787    	                	;
 NODE_1315811    	306.3052    	0.004583    	                	;
 NODE_1325374    	306.5864    	0.000142    	                	;
 NODE_1315812    	315.9112    	0.005096    	                	;
 NODE_1315813    	314.7845    	0.000000    	                	;
 NODE_1325378    	312.7253    	0.000000    	                	;
 NODE_1315794    	300.2341    	0.000833    	                	;
 NODE_1325379    	312.6686    	0.000000    	                	;
 NODE_1325375    	319.5377    	0.001667    	                	;
 NODE_1345125    	299.9218    	0.000000    	                	;
 NODE_1345262    	305.2218    	0.000000    	                	;
 NODE_3970951    	299.8363    	0.000000    	                	;
 NODE_4076       	302.5259    	0.000000    	                	;
 NODE_1345338    	302.5388    	0.000000    	                	;

[RESERVOIRS]
;ID              	Head        	Pattern         
 PRESS_646       	357.4518    	                

[TANKS]
;ID             	Elevation   	InitLevel   	MinLevel    	MaxLevel    	Diameter    	MinVol      	VolCurve

[PIPES]
;ID             	Node1           	Node2           	Length      	Diameter    	Roughness   	MinorLoss   	Status
 PIPE_783057     	NODE_1345125    	NODE_3970951    	0.9419      	110.0000    	0.0200     	0.0000      	Open  ;
 PIPE_783164     	NODE_4076       	NODE_1345338    	0.3000      	110.0000    	0.0200     	0.0000      	Open  ;
 PIPE_783780     	PRESS_646       	NODE_1345338    	2.0166      	110.0000    	0.0200     	0.0000      	Open  ;
 PIPE_1369954    	NODE_1325380    	NODE_1345262    	1.1353      	110.0000    	0.0200     	0.0000      	Open  ;
 PIPE_1371752    	NODE_1325379    	NODE_1325380    	68.5247     	110.0000    	0.0200     	0.0000      	Open  ;
 PIPE_1371762    	NODE_1315813    	NODE_1325379    	17.8888     	110.0000    	0.0200     	0.0000      	Open  ;
 PIPE_1371768    	NODE_1325377    	NODE_1315813    	20.2440     	110.0000    	0.0200     	0.0000      	Open  ;
 PIPE_1371779    	NODE_1325376    	NODE_1319516    	15.2504     	110.0000    	0.0200     	0.0000      	Open  ;
 PIPE_1371780    	NODE_1319516    	NODE_1325377    	22.5972     	110.0000    	0.0200     	0.0000      	Open  ;
 PIPE_1371786    	NODE_1325378    	NODE_1315812    	19.6947     	110.0000    	0.0200     	0.0000      	Open  ;
 PIPE_1371792    	NODE_1315812    	NODE_1325375    	19.8576     	110.0000    	0.0200     	0.0000      	Open  ;
 PIPE_1371793    	NODE_1325375    	NODE_1325376    	27.1397     	110.0000    	0.0200     	0.0000      	Open  ;
 PIPE_1371800    	NODE_1325374    	NODE_1325378    	62.8199     	110.0000    	0.0200     	0.0000      	Open  ;
 PIPE_1371805    	NODE_1325373    	NODE_1325374    	35.9935     	110.0000    	0.0200     	0.0000      	Open  ;
 PIPE_1371810    	NODE_1315811    	NODE_1325373    	21.0744     	110.0000    	0.0200     	0.0000      	Open  ;
 PIPE_1374810    	NODE_1316191    	NODE_3970951    	16.5674     	80.0000     	0.0200     	0.0000      	Open  ;
 PIPE_1374816    	NODE_1326247    	NODE_1316191    	8.4277      	80.0000     	0.0200     	0.0000      	Open  ;
 PIPE_1374821    	NODE_1315794    	NODE_1326246    	1.6986      	80.0000     	0.0200     	0.0000      	Open  ;
 PIPE_1374827    	NODE_1326246    	NODE_1326245    	0.1286      	80.0000     	0.0200     	0.0000      	Open  ;
 PIPE_1374828    	NODE_1326245    	NODE_1326247    	5.4295      	80.0000     	0.0200     	0.0000      	Open  ;
 PIPE_1394993    	NODE_1345338    	NODE_1325945    	66.5125     	110.0000    	0.0200     	0.0000      	Open  ;
 PIPE_1394994    	NODE_1325945    	NODE_1315811    	21.8039     	110.0000    	0.0200     	0.0000      	Open  ;
 PIPE_1394998    	NODE_1345262    	NODE_1337100    	9.0456      	110.0000    	0.0200     	0.0000      	Open  ;
 PIPE_1394999    	NODE_1337100    	NODE_1345125    	22.5929     	110.0000    	0.0200     	0.0000      	Open  ;
 PIPE_1400852    	NODE_1316653    	NODE_1315794    	14.0146     	80.0000     	0.0200     	0.0000      	Open  ;
 PIPE_1407836    	NODE_1312737    	NODE_1316558    	0.9866      	80.0000     	0.0200     	0.0000      	Open  ;
 PIPE_1407837    	NODE_1316558    	NODE_1316653    	8.6417      	80.0000     	0.0200     	0.0000      	Open  ;

[PUMPS]
;ID             	Node1           	Node2           	Parameters

[VALVES]
;ID             	Node1           	Node2           	Diameter    	Type	Setting     	MinorLoss   

[TAGS]

[DEMANDS]
;Junction       	Demand      	Pattern         	Category

[STATUS]
;ID              	Status/Setting

[PATTERNS]
;ID             	Multipliers

[CURVES]
;ID             	X-Value     	Y-Value

[CONTROLS]

[RULES]

[ENERGY]

[EMITTERS]

[QUALITY]

[SOURCES]

[REACTIONS]

[MIXING]

[TIMES]

[REPORT]

[OPTIONS]
 Units              	LPS
 Headloss           	C-F
 Specific Gravity   	1.0
 Viscosity          	1.0
 Trials             	40
 Accuracy           	0.001
 CHECKFREQ          	2
 MAXCHECK           	10
 DAMPLIMIT          	0
 Unbalanced         	Continue 10
 Pattern            	1
 Demand Multiplier  	1.0
 Emitter Exponent   	0.5
 Quality            	Chlorine mg/L
 Diffusivity        	1.0
 Tolerance          	0.01

[COORDINATES]
;Node           	X-Coord         	Y-Coord
 NODE_1326245    	262496.0212     	463299.7182     
 NODE_1326246    	262496.1327     	463299.6541     
 NODE_1319516    	262421.5502     	463201.1515     
 NODE_1325376    	262409.1254     	463192.3086     
 NODE_1325377    	262439.8636     	463214.3834     
 NODE_1316558    	262517.3696     	463287.7314     
 NODE_1312737    	262518.2301     	463287.2487     
 NODE_1326247    	262491.3149     	463302.4256     
 NODE_1325380    	262456.2674     	463284.2509     
 NODE_1316653    	262509.8325     	463291.9588     
 NODE_1316191    	262484.0051     	463306.6200     
 NODE_1337100    	262459.5041     	463293.4827     
 NODE_1325945    	262225.4543     	463168.2789     
 NODE_1325373    	262265.8858     	463154.9966     
 NODE_1315811    	262246.6187     	463163.5353     
 NODE_1325374    	262299.2293     	463141.4728     
 NODE_1315812    	262371.3730     	463164.7006     
 NODE_1315813    	262457.6927     	463223.9721     
 NODE_1325378    	262358.0004     	463150.2451     
 NODE_1315794    	262497.6093     	463298.8146     
 NODE_1325379    	262473.7612     	463231.7484     
 NODE_1325375    	262386.4622     	463177.5424     
 NODE_1345125    	262468.5624     	463314.1802     
 NODE_1345262    	262455.8774     	463285.1960     
 PRESS_646       	262162.3673     	463187.4731     
 NODE_3970951    	262469.3806     	463314.4047     
 NODE_4076       	262164.0646     	463187.7301     
 NODE_1345338    	262164.1259     	463187.4364     

[VERTICES]

[LABELS]

[BACKDROP]

[END]
