[TITLE]
Converted from Epanet to Staci, case name: balf.spr


[JUNCTIONS]
;ID              	Elev        	Demand      	Pattern         
 NODE_1331004    	135.8504    	0.711592    	                	;
 NODE_1333198    	130.5732    	0.000000    	                	;
 NODE_1316735    	134.2384    	0.000000    	                	;
 NODE_1316736    	127.2555    	0.000000    	                	;
 NODE_1331745    	158.5119    	0.005833    	                	;
 NODE_1331747    	157.0425    	0.003750    	                	;
 NODE_1331755    	158.3909    	0.001250    	                	;
 NODE_1334418    	125.5076    	0.009167    	                	;
 NODE_1319317    	142.8842    	0.004583    	                	;
 NODE_1331762    	136.7920    	0.002500    	                	;
 NODE_1318703    	124.9181    	0.010383    	                	;
 NODE_1331649    	131.3992    	0.007917    	                	;
 NODE_1334898    	125.5907    	0.002917    	                	;
 NODE_1318711    	125.7866    	0.010000    	                	;
 NODE_1334903    	130.7030    	0.001667    	                	;
 NODE_1316997    	129.3368    	0.000000    	                	;
 NODE_1317568    	130.9633    	0.001667    	                	;
 NODE_1334909    	132.2736    	0.002917    	                	;
 NODE_1334911    	128.0082    	0.005000    	                	;
 NODE_1334388    	130.8661    	0.012083    	                	;
 NODE_1318031    	131.0304    	0.003333    	                	;
 NODE_1334390    	131.0115    	0.008333    	                	;
 NODE_1337586    	130.3658    	0.001250    	                	;
 NODE_1318033    	131.4535    	0.005000    	                	;
 NODE_1322754    	119.4923    	0.004167    	                	;
 NODE_1334399    	128.7539    	0.000417    	                	;
 NODE_1334400    	129.2391    	0.010417    	                	;
 NODE_1331740    	121.0536    	0.010833    	                	;
 NODE_1331742    	119.6458    	0.003750    	                	;
 NODE_1338172    	133.3031    	0.002083    	                	;
 NODE_1334890    	130.9540    	0.008333    	                	;
 NODE_1317186    	129.3498    	0.006250    	                	;
 NODE_1333779    	130.9279    	0.001250    	                	;
 NODE_1338046    	128.8144    	0.002500    	                	;
 NODE_1334458    	130.2880    	0.005833    	                	;
 NODE_1334454    	154.1977    	0.004167    	                	;
 NODE_1334453    	121.6021    	0.005417    	                	;
 NODE_1335854    	120.2589    	0.004583    	                	;
 NODE_1314639    	129.6563    	0.008750    	                	;
 NODE_1336487    	136.7856    	0.003750    	                	;
 NODE_1316737    	155.5813    	0.000000    	                	;
 NODE_1333206    	139.6338    	0.007083    	                	;
 NODE_1320908    	130.6901    	0.000000    	                	;
 NODE_1317184    	146.1049    	0.000000    	                	;
 NODE_1334413    	129.3254    	0.005417    	                	;
 NODE_1316057    	145.3981    	0.002917    	                	;
 NODE_1334419    	125.3614    	0.004583    	                	;
 NODE_1316062    	137.3802    	0.000000    	                	;
 NODE_1332298    	127.9851    	0.005000    	                	;
 NODE_1334874    	125.1684    	0.000417    	                	;
 NODE_1316063    	128.3321    	0.013987    	                	;
 NODE_1331768    	129.0877    	0.024871    	                	;
 NODE_1337889    	127.5737    	0.018554    	                	;
 NODE_1334906    	130.8376    	0.000833    	                	;
 NODE_1318714    	129.8558    	0.001458    	                	;
 NODE_1333914    	130.1031    	0.005833    	                	;
 NODE_1334878    	138.1098    	0.005833    	                	;
 NODE_1334882    	134.8620    	0.007596    	                	;
 NODE_1334883    	135.5617    	0.007500    	                	;
 NODE_1334886    	137.8443    	0.003333    	                	;
 NODE_1318709    	141.4035    	0.000000    	                	;
 NODE_1334387    	130.7649    	0.001667    	                	;
 NODE_1334389    	130.9115    	0.002917    	                	;
 NODE_1318032    	130.3749    	0.000371    	                	;
 NODE_1334391    	130.2894    	0.006667    	                	;
 NODE_1335426    	131.9081    	0.005417    	                	;
 NODE_1331732    	127.5257    	0.000000    	                	;
 NODE_1331733    	119.4004    	0.004583    	                	;
 NODE_1331735    	120.0464    	0.007500    	                	;
 NODE_1318034    	125.9096    	0.010121    	                	;
 NODE_1331737    	122.1641    	0.002917    	                	;
 NODE_1331741    	119.8810    	0.004583    	                	;
 NODE_1331654    	128.4859    	0.003333    	                	;
 NODE_1318040    	129.2267    	0.000279    	                	;
 NODE_1336301    	129.1288    	0.026296    	                	;
 NODE_1323750    	128.8561    	0.002500    	                	;
 NODE_1322249    	128.8345    	0.000000    	                	;
 NODE_1318514    	131.2771    	0.003750    	                	;
 NODE_1318513    	130.1004    	0.006250    	                	;
 NODE_1313242    	127.1336    	0.000000    	                	;
 NODE_1315641    	127.4652    	0.000833    	                	;
 NODE_1313025    	147.6721    	0.005417    	                	;
 NODE_1333707    	129.4943    	0.005417    	                	;
 NODE_1333205    	139.0250    	0.000000    	                	;
 NODE_1317180    	146.2080    	0.000000    	                	;
 NODE_1333692    	146.1609    	0.000000    	                	;
 NODE_8180449    	131.8418    	0.000000    	                	;
 NODE_1333701    	148.9668    	0.000000    	                	;
 NODE_1334411    	129.2756    	0.000000    	                	;
 NODE_1334412    	129.1536    	0.004583    	                	;
 NODE_1334414    	129.1365    	0.001042    	                	;
 NODE_1331756    	158.2721    	0.003333    	                	;
 NODE_1331757    	159.3082    	0.001250    	                	;
 NODE_1338168    	124.9370    	0.011250    	                	;
 NODE_1327291    	143.4667    	0.000417    	                	;
 NODE_1331767    	127.6163    	0.005000    	                	;
 NODE_1334893    	132.8208    	0.013333    	                	;
 NODE_1334895    	127.8167    	0.006913    	                	;
 NODE_1317188    	120.3104    	0.000000    	                	;
 NODE_1334897    	126.6758    	0.000208    	                	;
 NODE_1334899    	126.8690    	0.001250    	                	;
 NODE_1333715    	130.9634    	0.006667    	                	;
 NODE_1317190    	130.5554    	0.002917    	                	;
 NODE_1333916    	130.1170    	0.006250    	                	;
 NODE_1322750    	140.2999    	0.001250    	                	;
 NODE_1334884    	137.1688    	0.002500    	                	;
 NODE_1336304    	139.5050    	0.002500    	                	;
 NODE_1330787    	131.6176    	0.004583    	                	;
 NODE_1334202    	129.9302    	0.000625    	                	;
 NODE_1334386    	130.2292    	0.004583    	                	;
 NODE_1318030    	130.4392    	0.002083    	                	;
 NODE_1316048    	132.1388    	0.006667    	                	;
 NODE_1316050    	127.0974    	0.000000    	                	;
 NODE_1331734    	119.6370    	0.000000    	                	;
 NODE_1316051    	119.9078    	0.001667    	                	;
 NODE_1334401    	129.1953    	0.011987    	                	;
 NODE_1316054    	119.7028    	0.004167    	                	;
 NODE_1334408    	126.9157    	0.004167    	                	;
 NODE_1317185    	149.0771    	0.006250    	                	;
 NODE_1336982    	135.1541    	0.000000    	                	;
 NODE_1317770    	147.4391    	0.009096    	                	;
 NODE_1336306    	130.6377    	0.003750    	                	;
 NODE_1318515    	129.9491    	0.002083    	                	;
 NODE_1318672    	129.7868    	0.008750    	                	;
 NODE_1315643    	129.2802    	0.001667    	                	;
 NODE_1334460    	127.3711    	0.005417    	                	;
 NODE_1333762    	126.4650    	0.002500    	                	;
 NODE_1330997    	144.3034    	0.000000    	                	;
 NODE_1335917    	175.8647    	0.000000    	                	;
 NODE_1333697    	142.1717    	0.000000    	                	;
 NODE_1333698    	140.8190    	0.000000    	                	;
 NODE_1333193    	126.9228    	0.007083    	                	;
 NODE_1333702    	148.6854    	0.005000    	                	;
 NODE_1333197    	141.6163    	0.000000    	                	;
 NODE_1317187    	119.4265    	0.000000    	                	;
 NODE_1337591    	138.5666    	0.000000    	                	;
 NODE_1318042    	129.1801    	0.002500    	                	;
 NODE_1318044    	124.9073    	0.003333    	                	;
 NODE_1331759    	125.4769    	0.006667    	                	;
 NODE_1334422    	125.0144    	0.000417    	                	;
 NODE_1334423    	125.0135    	0.007083    	                	;
 NODE_1331763    	136.8001    	0.007500    	                	;
 NODE_1331765    	137.6067    	0.000417    	                	;
 NODE_1318704    	126.0540    	0.000417    	                	;
 NODE_1334900    	127.3091    	0.001667    	                	;
 NODE_1331647    	128.0743    	0.002917    	                	;
 NODE_1334905    	131.5649    	0.002500    	                	;
 NODE_1336303    	131.9358    	0.000000    	                	;
 NODE_1332295    	130.9296    	0.014167    	                	;
 NODE_1317189    	130.8211    	0.002917    	                	;
 NODE_1333717    	131.1784    	0.006667    	                	;
 NODE_1334199    	130.3593    	0.000833    	                	;
 NODE_1334877    	136.4456    	0.007917    	                	;
 NODE_1318705    	139.3002    	0.001667    	                	;
 NODE_1334879    	139.8388    	0.001250    	                	;
 NODE_1334880    	140.5463    	0.015833    	                	;
 NODE_1334910    	128.8797    	0.000000    	                	;
 NODE_1322746    	126.1350    	0.005808    	                	;
 NODE_1334397    	126.8429    	0.003333    	                	;
 NODE_1336307    	129.2469    	0.001667    	                	;
 NODE_1318037    	128.8828    	0.004167    	                	;
 NODE_1331736    	120.1457    	0.004167    	                	;
 NODE_1335855    	120.2768    	0.010000    	                	;
 NODE_1331743    	119.5803    	0.000000    	                	;
 NODE_1318038    	126.2467    	0.006642    	                	;
 NODE_1334888    	125.7105    	0.006775    	                	;
 NODE_1336980    	134.5878    	0.018646    	                	;
 NODE_1334452    	119.5602    	0.003750    	                	;
 NODE_1333189    	126.7724    	0.002917    	                	;
 NODE_1331473    	136.2605    	0.002917    	                	;
 NODE_1333203    	135.3061    	0.006250    	                	;
 NODE_1333204    	138.4061    	0.007425    	                	;
 NODE_1333207    	145.8066    	0.000000    	                	;
 NODE_1333695    	143.9902    	0.000000    	                	;
 NODE_1333699    	139.0672    	0.009404    	                	;
 NODE_1338461    	118.9924    	0.000000    	                	;
 NODE_1316059    	131.3938    	0.002500    	                	;
 NODE_1334416    	129.5878    	0.004167    	                	;
 NODE_1331753    	153.6663    	0.009167    	                	;
 NODE_1334420    	124.9799    	0.009583    	                	;
 NODE_1331760    	132.1711    	0.006250    	                	;
 NODE_1334424    	125.6409    	0.003333    	                	;
 NODE_1334896    	127.4221    	0.003750    	                	;
 NODE_1333917    	131.5649    	0.000000    	                	;
 NODE_1334881    	141.4069    	0.000833    	                	;
 NODE_1334885    	137.6346    	0.002083    	                	;
 NODE_1321441    	140.4098    	0.005000    	                	;
 NODE_1334887    	140.6438    	0.000833    	                	;
 NODE_1338167    	130.8985    	0.000000    	                	;
 NODE_1334392    	129.8917    	0.008417    	                	;
 NODE_1334393    	130.1168    	0.001042    	                	;
 NODE_1334394    	130.2228    	0.000000    	                	;
 NODE_1334395    	132.1274    	0.003333    	                	;
 NODE_1335424    	132.4290    	0.000833    	                	;
 NODE_1334396    	125.6314    	0.002083    	                	;
 NODE_1318036    	129.1646    	0.002500    	                	;
 NODE_1321440    	129.3291    	0.003750    	                	;
 NODE_1318039    	126.9383    	0.002917    	                	;
 NODE_1334410    	129.1879    	0.005833    	                	;
 NODE_1334889    	126.6291    	0.000625    	                	;
 NODE_1318710    	127.5127    	0.002083    	                	;
 NODE_1333704    	129.4911    	0.005417    	                	;
 NODE_1327353    	126.8560    	0.000000    	                	;
 NODE_1333773    	128.9771    	0.000208    	                	;
 NODE_1338237    	131.2686    	0.007204    	                	;
 NODE_1333202    	133.9817    	0.010442    	                	;
 NODE_1316740    	143.4358    	0.003333    	                	;
 NODE_1333694    	148.3718    	0.002917    	                	;
 NODE_1333696    	143.5277    	0.000000    	                	;
 NODE_1338163    	135.7784    	0.004167    	                	;
 NODE_1316060    	145.0803    	0.018850    	                	;
 NODE_1337581    	125.0987    	0.000000    	                	;
 NODE_1318041    	129.2388    	0.001667    	                	;
 NODE_1335980    	150.2868    	0.002917    	                	;
 NODE_1316056    	140.2261    	0.003750    	                	;
 NODE_1331750    	144.4199    	0.004167    	                	;
 NODE_1331752    	153.0583    	0.002083    	                	;
 NODE_1331758    	131.6383    	0.004167    	                	;
 NODE_1336302    	126.2938    	0.004167    	                	;
 NODE_1318045    	125.7474    	0.002500    	                	;
 NODE_1331764    	136.9883    	0.070742    	                	;
 NODE_1334873    	125.1252    	0.008125    	                	;
 NODE_1331766    	137.5247    	0.002917    	                	;
 NODE_1331769    	128.9842    	0.003333    	                	;
 NODE_1334892    	130.1611    	0.005417    	                	;
 NODE_1337589    	127.1475    	0.002500    	                	;
 NODE_1334894    	127.7957    	0.002917    	                	;
 NODE_1334901    	129.0682    	0.005000    	                	;
 NODE_1330881    	130.0052    	0.000833    	                	;
 NODE_1318715    	132.4405    	0.002917    	                	;
 NODE_1333716    	130.9448    	0.002500    	                	;
 NODE_1317569    	130.6275    	0.004583    	                	;
 NODE_1320059    	137.6704    	0.012083    	                	;
 NODE_1334908    	132.1706    	0.001667    	                	;
 NODE_1335119    	126.9622    	0.008350    	                	;
 NODE_1335120    	132.1825    	0.005000    	                	;
 NODE_1335427    	131.3978    	0.002083    	                	;
 NODE_1334404    	129.5384    	0.002083    	                	;
 NODE_1316052    	120.9019    	0.003333    	                	;
 NODE_1331738    	126.7567    	0.005833    	                	;
 NODE_1331739    	119.6222    	0.002917    	                	;
 NODE_1334406    	126.1612    	0.004583    	                	;
 NODE_1336300    	140.3666    	0.008750    	                	;
 NODE_1333784    	132.7544    	0.007083    	                	;
 NODE_1333782    	130.5025    	0.000833    	                	;
 NODE_1333777    	130.1489    	0.002500    	                	;
 NODE_1315639    	122.6904    	0.002917    	                	;
 NODE_1333709    	139.4864    	0.014167    	                	;
 NODE_1333188    	144.1045    	0.006250    	                	;
 NODE_1316739    	132.7313    	0.005000    	                	;
 NODE_1333693    	146.7171    	0.000000    	                	;
 NODE_1320053    	146.1204    	0.000000    	                	;
 NODE_1317183    	138.4373    	0.011354    	                	;
 NODE_1337583    	137.2853    	0.015900    	                	;
 NODE_1336309    	134.6820    	0.256346    	                	;
 NODE_1333192    	130.3653    	0.002500    	                	;
 NODE_1316055    	158.0269    	0.006250    	                	;
 NODE_1316058    	157.2550    	0.002917    	                	;
 NODE_1334421    	125.0875    	0.006250    	                	;
 NODE_1334425    	125.8297    	0.001492    	                	;
 NODE_1316061    	138.8778    	0.000417    	                	;
 NODE_1332296    	158.6516    	0.004167    	                	;
 NODE_1332297    	129.5950    	0.006983    	                	;
 NODE_1334875    	125.0067    	0.010833    	                	;
 NODE_1334876    	125.6428    	0.003646    	                	;
 NODE_1333712    	119.4344    	0.011621    	                	;
 NODE_1334902    	129.5454    	0.019900    	                	;
 NODE_1333915    	130.0915    	0.002917    	                	;
 NODE_1327286    	130.5409    	0.000000    	                	;
 NODE_1333918    	131.6104    	0.007083    	                	;
 NODE_1333919    	133.6657    	0.009167    	                	;
 NODE_1333920    	130.6424    	0.002917    	                	;
 NODE_1334200    	130.2368    	0.002500    	                	;
 NODE_1318706    	141.4004    	0.007083    	                	;
 NODE_1318708    	138.6856    	0.002917    	                	;
 NODE_1334201    	129.7464    	0.002500    	                	;
 NODE_1318716    	130.6997    	0.007500    	                	;
 NODE_1335425    	132.5400    	0.002500    	                	;
 NODE_1316049    	130.0776    	0.013583    	                	;
 NODE_1335428    	128.1853    	0.016900    	                	;
 NODE_1334398    	127.8730    	0.000417    	                	;
 NODE_1316053    	125.5287    	0.003750    	                	;
 NODE_1334407    	126.6857    	0.002500    	                	;
 NODE_1327289    	127.7750    	0.000417    	                	;
 NODE_1334891    	131.4849    	0.018913    	                	;
 NODE_1336981    	129.2284    	0.002354    	                	;
 NODE_1335974    	126.5364    	0.000000    	                	;
 NODE_1316234    	129.1103    	0.005417    	                	;
 NODE_1336308    	132.8865    	0.006446    	                	;
 NODE_1334933    	144.4926    	0.005000    	                	;
 NODE_1333785    	130.8494    	0.005000    	                	;
 NODE_1334462    	132.7800    	0.012012    	                	;
 NODE_1315640    	151.2740    	0.004167    	                	;
 NODE_1313026    	148.7552    	0.000000    	                	;
 NODE_1338023    	127.8911    	0.000833    	                	;
 NODE_1333708    	129.4917    	0.006283    	                	;
 NODE_1316738    	130.4962    	0.000000    	                	;
 NODE_1337104    	145.6600    	0.003333    	                	;
 NODE_1317181    	146.6974    	0.006250    	                	;
 NODE_1317182    	141.0472    	0.000000    	                	;
 NODE_1322258    	140.0167    	0.000000    	                	;
 NODE_1333700    	139.5055    	0.000000    	                	;
 NODE_1331744    	159.5709    	0.002917    	                	;
 NODE_1331746    	157.4487    	0.001250    	                	;
 NODE_1336381    	134.9138    	0.006667    	                	;
 NODE_1331748    	137.8361    	0.005000    	                	;
 NODE_1331749    	144.1843    	0.006667    	                	;
 NODE_1334415    	129.0336    	0.002917    	                	;
 NODE_1331751    	144.5299    	0.004583    	                	;
 NODE_1331754    	156.8245    	0.002917    	                	;
 NODE_1334417    	125.8744    	0.003750    	                	;
 NODE_1318043    	125.5071    	0.005417    	                	;
 NODE_1335423    	126.0443    	0.003750    	                	;
 NODE_1335679    	126.2898    	0.005987    	                	;
 NODE_1331761    	142.0336    	0.017500    	                	;
 NODE_1318712    	128.8143    	0.002500    	                	;
 NODE_1318713    	130.7400    	0.003333    	                	;
 NODE_1334904    	131.2277    	0.002500    	                	;
 NODE_1334907    	131.6007    	0.001667    	                	;
 NODE_1318029    	129.7849    	0.002917    	                	;
 NODE_1336380    	131.4258    	0.003333    	                	;
 NODE_1318707    	136.4653    	0.000833    	                	;
 NODE_1335118    	127.4373    	0.005000    	                	;
 NODE_1318717    	126.3322    	0.005833    	                	;
 NODE_1320063    	129.0589    	0.001250    	                	;
 NODE_1320055    	125.8214    	0.000833    	                	;
 NODE_1318035    	128.4764    	0.004167    	                	;
 NODE_1334402    	129.2477    	0.005000    	                	;
 NODE_1334403    	129.5264    	0.000625    	                	;
 NODE_1321445    	120.0806    	0.002917    	                	;
 NODE_1334405    	125.8645    	0.002917    	                	;
 NODE_1335853    	128.5172    	0.001667    	                	;
 NODE_1334409    	128.9545    	0.004583    	                	;
 NODE_1336983    	136.1487    	0.000000    	                	;
 NODE_1338043    	133.3172    	0.003333    	                	;
 NODE_1333783    	131.3668    	0.000000    	                	;
 NODE_1334459    	126.5593    	0.000417    	                	;
 NODE_1320609    	119.7227    	0.004167    	                	;
 NODE_1334451    	119.6969    	0.002500    	                	;
 NODE_1333194    	130.2338    	0.000000    	                	;
 NODE_1333195    	127.6758    	0.000000    	                	;
 NODE_1345393    	132.2963    	0.000000    	                	;
 NODE_1345289    	154.1219    	0.000000    	                	;
 NODE_4626       	132.2656    	0.000000    	                	;
 NODE_4626_1     	132.2242    	0.000000    	                	;
 NODE_1347173    	125.4896    	0.000000    	                	;
 NODE_4623       	128.6104    	0.000000    	                	;
 NODE_4623_1     	128.5874    	0.000000    	                	;
 NODE_4621       	127.7467    	0.000000    	                	;
 NODE_4621_1     	127.4081    	0.000000    	                	;
 NODE_1345128    	127.6859    	0.000000    	                	;
 NODE_1345346    	129.2687    	0.000000    	                	;
 NODE_1345126    	122.6899    	0.000000    	                	;
 NODE_1347564    	145.0482    	0.000000    	                	;
 NODE_4624       	132.2924    	0.000000    	                	;
 NODE_4624_1     	132.2511    	0.000000    	                	;
 NODE_1345398    	128.7123    	0.000000    	                	;
 NODE_4625       	132.3001    	0.000000    	                	;
 NODE_4625_1     	132.2588    	0.000000    	                	;
 NODE_1345335    	141.5945    	0.000000    	                	;
 NODE_3970450    	126.9480    	0.000000    	                	;
 NODE_4622       	128.7142    	0.000000    	                	;
 NODE_4622_1     	128.6912    	0.000000    	                	;
 NODE_3973450    	175.1373    	0.000000    	                	;
 NODE_4644       	129.3193    	0.000000    	                	;
 NODE_4644_1     	129.1880    	0.000000    	                	;
 NODE_4649       	133.1336    	0.000000    	                	;
 NODE_4649_1     	132.8118    	0.000000    	                	;
 NODE_1347174    	133.1330    	0.000000    	                	;
 NODE_4650       	127.6765    	0.000000    	                	;
 NODE_4650_1     	127.4471    	0.000000    	                	;
 NODE_4643       	154.0625    	0.000000    	                	;
 NODE_4643_1     	154.0625    	0.000000    	                	;
 NODE_1347172    	127.0803    	0.000000    	                	;
 NODE_8012       	135.8611    	0.000000    	                	;
 NODE_8012_1     	135.7618    	0.000000    	                	;
 NODE_4630       	126.9646    	0.000000    	                	;
 NODE_4630_1     	126.7886    	0.000000    	                	;

[RESERVOIRS]
;ID              	Head        	Pattern         

[TANKS]
;ID             	Elevation   	InitLevel   	MinLevel    	MaxLevel    	Diameter    	MinVol      	VolCurve
 POOL_206        	173.3500    	2.9200      	0.0000      	1000.0000   	10.3962     	0.0000      	                	

[PIPES]
;ID             	Node1           	Node2           	Length      	Diameter    	Roughness   	MinorLoss   	Status
 PIPE_777945     	NODE_1347564    	NODE_1316060    	1.0000      	90.0000     	0.0200     	0.0000      	Open  ;
 PIPE_1367349    	NODE_1317182    	NODE_1333698    	4.4656      	110.0000    	0.0200     	0.0000      	Open  ;
 PIPE_1368387    	NODE_1334881    	NODE_1318709    	10.7622     	125.0000    	0.0200     	0.0000      	Open  ;
 PIPE_1368391    	NODE_1318709    	NODE_1318706    	9.7505      	125.0000    	0.0200     	0.0000      	Open  ;
 PIPE_1368392    	NODE_1318706    	NODE_1334887    	20.4399     	125.0000    	0.0200     	0.0000      	Open  ;
 PIPE_1368398    	NODE_1321441    	NODE_1322750    	1.7800      	125.0000    	0.0200     	0.0000      	Open  ;
 PIPE_1368404    	NODE_1334887    	NODE_1334880    	2.8396      	125.0000    	0.0200     	0.0000      	Open  ;
 PIPE_1368405    	NODE_1334880    	NODE_1321441    	2.2108      	125.0000    	0.0200     	0.0000      	Open  ;
 PIPE_1368411    	NODE_1322750    	NODE_1334879    	15.9084     	125.0000    	0.0200     	0.0000      	Open  ;
 PIPE_1368412    	NODE_1334879    	NODE_1336304    	12.9663     	125.0000    	0.0200     	0.0000      	Open  ;
 PIPE_1368418    	NODE_1336304    	NODE_1318705    	2.3067      	125.0000    	0.0200     	0.0000      	Open  ;
 PIPE_1368419    	NODE_1318705    	NODE_1318708    	10.3254     	125.0000    	0.0200     	0.0000      	Open  ;
 PIPE_1368424    	NODE_1318708    	NODE_1334878    	13.3697     	125.0000    	0.0200     	0.0000      	Open  ;
 PIPE_1368461    	NODE_1334878    	NODE_1334886    	7.7168      	125.0000    	0.0200     	0.0000      	Open  ;
 PIPE_1368462    	NODE_1334886    	NODE_1320059    	13.8231     	125.0000    	0.0200     	0.0000      	Open  ;
 PIPE_1368468    	NODE_1320059    	NODE_1334885    	2.7962      	125.0000    	0.0200     	0.0000      	Open  ;
 PIPE_1368474    	NODE_1334885    	NODE_1334884    	4.9857      	125.0000    	0.0200     	0.0000      	Open  ;
 PIPE_1368480    	NODE_1334884    	NODE_1318707    	11.3978     	125.0000    	0.0200     	0.0000      	Open  ;
 PIPE_1368481    	NODE_1318707    	NODE_1334877    	0.7943      	125.0000    	0.0200     	0.0000      	Open  ;
 PIPE_1368497    	NODE_1336380    	NODE_1345128    	31.3075     	125.0000    	0.0200     	0.0000      	Open  ;
 PIPE_1369134    	NODE_1333697    	NODE_1317182    	22.0087     	110.0000    	0.0200     	0.0000      	Open  ;
 PIPE_1369144    	NODE_1333695    	NODE_1333696    	7.3478      	110.0000    	0.0200     	0.0000      	Open  ;
 PIPE_1369253    	NODE_1333693    	NODE_1317181    	0.3487      	110.0000    	0.0200     	0.0000      	Open  ;
 PIPE_1369264    	NODE_1333692    	NODE_1317180    	18.9966     	110.0000    	0.0200     	0.0000      	Open  ;
 PIPE_1369265    	NODE_1317180    	NODE_1320053    	3.8898      	110.0000    	0.0200     	0.0000      	Open  ;
 PIPE_1369270    	NODE_1320053    	NODE_1333207    	17.5393     	110.0000    	0.0200     	0.0000      	Open  ;
 PIPE_1369276    	NODE_1333207    	NODE_1337104    	4.0918      	110.0000    	0.0200     	0.0000      	Open  ;
 PIPE_1369283    	NODE_1333696    	NODE_1316740    	1.4614      	110.0000    	0.0200     	0.0000      	Open  ;
 PIPE_1369284    	NODE_1316740    	NODE_1333697    	20.0870     	110.0000    	0.0200     	0.0000      	Open  ;
 PIPE_1369289    	NODE_1322258    	NODE_1333206    	31.0988     	110.0000    	0.0200     	0.0000      	Open  ;
 PIPE_1369295    	NODE_1333699    	NODE_1333205    	1.2449      	110.0000    	0.0200     	0.0000      	Open  ;
 PIPE_1369296    	NODE_1333205    	NODE_1317183    	19.3292     	110.0000    	0.0200     	0.0000      	Open  ;
 PIPE_1369301    	NODE_1317183    	NODE_1333204    	6.2971      	110.0000    	0.0200     	0.0000      	Open  ;
 PIPE_1369302    	NODE_1333204    	NODE_1337583    	16.1065     	110.0000    	0.0200     	0.0000      	Open  ;
 PIPE_1369312    	NODE_1338163    	NODE_1333203    	7.2744      	110.0000    	0.0200     	0.0000      	Open  ;
 PIPE_1369319    	NODE_1337583    	NODE_1331473    	13.3173     	110.0000    	0.0200     	0.0000      	Open  ;
 PIPE_1369320    	NODE_1331473    	NODE_1338163    	9.7790      	110.0000    	0.0200     	0.0000      	Open  ;
 PIPE_1369326    	NODE_1333203    	NODE_1333202    	22.5407     	110.0000    	0.0200     	0.0000      	Open  ;
 PIPE_1369327    	NODE_1333202    	NODE_1316739    	23.3685     	110.0000    	0.0200     	0.0000      	Open  ;
 PIPE_1370434    	NODE_1317187    	NODE_1333712    	0.6325      	80.0000     	0.0200     	0.0000      	Open  ;
 PIPE_1370938    	NODE_1333708    	NODE_1333704    	1.1499      	125.0000    	0.0200     	0.0000      	Open  ;
 PIPE_1370939    	NODE_1333704    	NODE_1333707    	3.3347      	125.0000    	0.0200     	0.0000      	Open  ;
 PIPE_1370945    	NODE_1317186    	NODE_1333708    	15.8568     	125.0000    	0.0200     	0.0000      	Open  ;
 PIPE_1370950    	NODE_1336301    	NODE_1317186    	23.5023     	125.0000    	0.0200     	0.0000      	Open  ;
 PIPE_1371083    	NODE_1345335    	NODE_1333197    	11.1423     	125.0000    	0.0200     	0.0000      	Open  ;
 PIPE_1371084    	NODE_1333197    	NODE_1334881    	3.4482      	125.0000    	0.0200     	0.0000      	Open  ;
 PIPE_1371539    	NODE_1333701    	NODE_1317185    	1.6261      	110.0000    	0.0200     	0.0000      	Open  ;
 PIPE_1371545    	NODE_1316739    	NODE_1320908    	46.8226     	110.0000    	0.0200     	0.0000      	Open  ;
 PIPE_1371546    	NODE_1320908    	NODE_1316738    	3.0572      	110.0000    	0.0200     	0.0000      	Open  ;
 PIPE_1371923    	NODE_1333188    	NODE_1347564    	26.8560     	80.0000     	0.0200     	0.0000      	Open  ;