[TITLE]
Converted from Epanet to Staci, case name: becsidomb2.spr


[JUNCTIONS]
;ID              	Elev        	Demand      	Pattern         
 NODE_1313362    	216.3230    	0.005000    	                	;
 NODE_1330517    	216.0005    	0.000000    	                	;
 NODE_1323159    	212.1478    	0.000000    	                	;
 NODE_1314985    	217.3279    	0.000000    	                	;
 NODE_1318578    	217.5913    	0.000000    	                	;
 NODE_1328027    	220.0575    	0.000000    	                	;
 NODE_1325746    	215.3963    	0.001250    	                	;
 NODE_1312823    	220.6309    	0.000000    	                	;
 NODE_1312627    	222.1436    	0.003750    	                	;
 NODE_1312594    	222.0939    	0.000000    	                	;
 NODE_1312608    	223.0279    	0.003333    	                	;
 NODE_1315142    	220.1153    	0.000000    	                	;
 NODE_1327701    	218.7967    	0.000000    	                	;
 NODE_1314118    	219.3639    	0.032500    	                	;
 NODE_1338388    	219.4095    	0.000000    	                	;
 NODE_1327713    	219.3227    	0.000000    	                	;
 NODE_1316023    	223.4192    	0.000000    	                	;
 NODE_1325504    	219.8533    	0.000000    	                	;
 NODE_1316591    	220.7792    	0.000000    	                	;
 NODE_1325601    	212.1076    	0.001250    	                	;
 NODE_1317043    	211.8371    	0.005417    	                	;
 NODE_1336935    	220.2127    	0.000000    	                	;
 NODE_1312606    	223.1675    	0.000000    	                	;
 NODE_1338973    	220.0378    	0.000000    	                	;
 NODE_1315105    	221.6230    	0.000000    	                	;
 NODE_1313352    	217.7138    	0.000000    	                	;
 NODE_1336975    	222.3275    	0.000000    	                	;
 NODE_1315016    	220.9356    	0.000000    	                	;
 NODE_1317675    	220.5281    	0.000000    	                	;
 NODE_1326029    	213.1843    	0.000000    	                	;
 NODE_1312868    	220.4420    	0.048333    	                	;
 NODE_1312840    	219.5738    	0.000000    	                	;
 NODE_1338399    	212.1018    	0.001250    	                	;
 NODE_1314109    	219.3713    	0.000000    	                	;
 NODE_1336333    	225.3686    	0.000000    	                	;
 NODE_1314997    	218.5703    	0.000000    	                	;
 NODE_1338661    	221.0226    	0.000000    	                	;
 NODE_1312841    	219.1732    	0.000000    	                	;
 NODE_1312589    	221.5088    	0.000000    	                	;
 NODE_1327436    	228.0893    	0.103750    	                	;
 NODE_1324759    	211.9053    	0.070833    	                	;
 NODE_1323667    	212.7424    	0.000000    	                	;
 NODE_1324085    	215.6609    	0.000000    	                	;
 NODE_1313350    	217.6278    	0.000000    	                	;
 NODE_1326025    	213.6370    	0.002917    	                	;
 NODE_1336374    	220.7805    	0.004167    	                	;
 NODE_1338939    	225.4834    	0.036667    	                	;
 NODE_1315018    	220.8044    	0.000000    	                	;
 NODE_1312075    	217.0669    	0.000000    	                	;
 NODE_1338011    	221.5621    	0.000000    	                	;
 NODE_1316631    	217.2702    	0.000000    	                	;
 NODE_1325768    	214.2800    	0.000000    	                	;
 NODE_1314096    	217.8568    	0.000000    	                	;
 NODE_1315014    	220.9576    	0.000000    	                	;
 NODE_1314092    	219.7531    	0.000000    	                	;
 NODE_1327443    	229.3413    	0.000000    	                	;
 NODE_1335381    	216.2400    	0.000000    	                	;
 NODE_1326347    	216.1141    	0.001250    	                	;
 NODE_1319319    	220.7615    	0.000000    	                	;
 NODE_1335712    	214.7919    	0.006667    	                	;
 NODE_1330274    	225.3683    	0.086250    	                	;
 NODE_1337162    	217.5608    	0.000000    	                	;
 NODE_1331146    	222.8984    	0.000000    	                	;
 NODE_1314897    	231.9413    	0.000000    	                	;
 NODE_1335948    	218.2959    	0.000000    	                	;
 NODE_1315082    	220.0684    	0.000000    	                	;
 NODE_1337984    	220.4157    	0.000000    	                	;
 NODE_1317913    	222.4291    	0.000000    	                	;
 NODE_1316876    	219.7081    	0.009167    	                	;
 NODE_1325609    	223.3359    	0.000000    	                	;
 NODE_1318589    	220.7718    	0.000000    	                	;
 NODE_1315117    	220.4226    	0.000000    	                	;
 NODE_1325595    	211.8041    	0.005000    	                	;
 NODE_1325066    	216.2342    	0.040000    	                	;
 NODE_1316590    	220.8887    	0.000000    	                	;
 NODE_1312586    	221.2649    	0.000000    	                	;
 NODE_1325214    	212.0223    	0.000000    	                	;
 NODE_1314324    	219.3686    	0.000000    	                	;
 NODE_1327725    	219.1882    	0.000000    	                	;
 NODE_1317929    	220.0281    	0.000000    	                	;
 NODE_1312609    	222.8715    	0.000000    	                	;
 NODE_1316638    	232.4492    	0.002500    	                	;
 NODE_1315096    	220.2804    	0.000000    	                	;
 NODE_1337340    	218.4955    	0.000000    	                	;
 NODE_1315466    	215.5059    	0.000000    	                	;
 NODE_1325910    	219.2956    	0.000833    	                	;
 NODE_1318608    	219.8774    	0.000000    	                	;
 NODE_1315123    	220.7741    	0.000000    	                	;
 NODE_1327709    	219.2498    	0.000000    	                	;
 NODE_1323664    	219.8822    	0.000000    	                	;
 NODE_1338351    	221.4546    	0.000000    	                	;
 NODE_1312105    	211.8542    	0.006667    	                	;
 NODE_1312881    	221.2436    	0.000000    	                	;
 NODE_1326305    	227.9918    	0.000000    	                	;
 NODE_1314990    	216.8501    	0.000000    	                	;
 NODE_1335715    	214.7732    	0.000000    	                	;
 NODE_1327726    	219.0591    	0.108333    	                	;
 NODE_1312596    	222.3583    	0.000000    	                	;
 NODE_1328028    	220.3897    	0.000000    	                	;
 NODE_1314108    	219.4501    	0.000000    	                	;
 NODE_1325794    	220.8915    	0.000000    	                	;
 NODE_1325599    	212.5270    	0.002500    	                	;
 NODE_1312831    	220.4352    	0.000000    	                	;
 NODE_1326121    	232.5298    	0.005000    	                	;
 NODE_1314137    	219.3265    	0.000000    	                	;
 NODE_1317941    	222.4755    	0.000000    	                	;
 NODE_1321360    	219.8413    	0.000000    	                	;
 NODE_1312101    	213.2266    	0.000000    	                	;
 NODE_1315099    	220.5594    	0.000000    	                	;
 NODE_1319571    	212.5186    	0.110833    	                	;
 NODE_1312098    	215.1408    	0.001250    	                	;
 NODE_1312602    	223.1703    	0.000000    	                	;
 NODE_1338392    	222.7190    	0.000000    	                	;
 NODE_1316593    	220.7417    	0.000000    	                	;
 NODE_1314894    	232.2146    	0.005417    	                	;
 NODE_1328026    	220.3266    	0.000000    	                	;
 NODE_1314105    	218.3068    	0.000000    	                	;
 NODE_1324241    	220.9921    	0.000000    	                	;
 NODE_1337698    	216.0297    	0.000000    	                	;
 NODE_1338160    	221.8146    	0.003750    	                	;
 NODE_1338389    	216.5226    	0.000000    	                	;
 NODE_1313177    	216.6684    	0.000000    	                	;
 NODE_1314981    	215.8122    	0.002500    	                	;
 NODE_1317937    	219.3152    	0.000000    	                	;
 NODE_1317927    	221.6438    	0.000000    	                	;
 NODE_1337434    	221.1167    	0.001250    	                	;
 NODE_1317928    	220.3536    	0.000000    	                	;
 NODE_1316878    	220.0403    	0.000000    	                	;
 NODE_1325256    	216.3251    	0.000000    	                	;
 NODE_1314097    	217.4131    	0.000000    	                	;
 NODE_1328035    	221.1073    	0.000000    	                	;
 NODE_1315125    	220.7841    	0.000000    	                	;
 NODE_1315005    	223.1583    	0.000000    	                	;
 NODE_1315106    	221.8656    	0.000000    	                	;
 NODE_1316841    	214.1556    	0.015417    	                	;
 NODE_1315122    	220.7358    	0.005000    	                	;
 NODE_1327445    	227.9967    	0.000000    	                	;
 NODE_1313076    	220.6649    	0.000000    	                	;
 NODE_1315387    	219.5927    	0.007917    	                	;
 NODE_1338941    	230.7002    	0.005833    	                	;
 NODE_1338936    	216.5233    	0.000000    	                	;
 NODE_1330752    	220.0988    	0.000000    	                	;
 NODE_1312124    	212.6430    	0.001250    	                	;
 NODE_1314121    	219.2954    	0.000000    	                	;
 NODE_1312878    	222.2521    	0.000000    	                	;
 NODE_1328024    	220.6890    	0.000000    	                	;
 NODE_1315085    	220.3920    	0.000833    	                	;
 NODE_1330993    	215.6892    	0.011667    	                	;
 NODE_1337165    	222.8706    	0.000000    	                	;
 NODE_1336195    	220.7802    	0.000000    	                	;
 NODE_1336332    	216.1784    	0.000000    	                	;
 NODE_1312842    	219.2187    	0.000000    	                	;
 NODE_1314130    	222.7408    	0.000000    	                	;
 NODE_1337341    	218.4575    	0.000000    	                	;
 NODE_1315124    	220.7776    	0.000000    	                	;
 NODE_1336252    	219.6894    	0.000000    	                	;
 NODE_1315113    	220.8106    	0.000000    	                	;
 NODE_1317765    	216.0171    	0.001667    	                	;
 NODE_1326090    	213.9387    	0.045000    	                	;
 NODE_1318583    	219.8991    	0.000000    	                	;
 NODE_1323261    	221.1658    	0.000000    	                	;
 NODE_1338928    	222.4845    	0.000000    	                	;
 NODE_6289971    	218.0995    	0.000000    	                	;
 NODE_1318579    	216.9783    	0.000000    	                	;
 NODE_1337019    	214.7845    	0.000000    	                	;
 NODE_1317036    	212.9349    	0.000000    	                	;
 NODE_1320592    	217.6602    	0.000000    	                	;
 NODE_1323243    	219.9862    	0.000000    	                	;
 NODE_1312599    	221.7055    	0.000000    	                	;
 NODE_1312870    	219.8777    	0.004583    	                	;
 NODE_1314128    	222.4916    	0.000000    	                	;
 NODE_1338468    	212.5666    	0.000000    	                	;
 NODE_1338935    	215.6454    	0.025833    	                	;
 NODE_1314992    	216.2498    	0.000000    	                	;
 NODE_1314091    	220.0972    	0.000000    	                	;
 NODE_1315128    	220.7921    	0.002917    	                	;
 NODE_1316550    	219.3731    	0.000000    	                	;
 NODE_1312883    	221.6661    	0.000000    	                	;
 NODE_1338378    	219.8511    	0.000000    	                	;
 NODE_1312635    	221.6584    	0.000000    	                	;
 NODE_1312104    	212.0979    	0.000417    	                	;
 NODE_1316637    	232.7770    	0.007500    	                	;
 NODE_1316634    	217.5559    	0.000000    	                	;
 NODE_1312073    	217.9285    	0.000000    	                	;
 NODE_1312076    	217.9145    	0.000000    	                	;
 NODE_1336605    	220.0325    	0.000000    	                	;
 NODE_1315098    	220.4413    	0.000000    	                	;
 NODE_1332011    	219.3323    	0.001667    	                	;
 NODE_1337445    	219.2404    	0.000000    	                	;
 NODE_1323258    	221.2716    	0.000000    	                	;
 NODE_1330513    	216.2321    	0.000000    	                	;
 NODE_1327700    	219.7527    	0.000000    	                	;
 NODE_1312637    	221.4629    	0.010833    	                	;
 NODE_1313354    	218.0521    	0.000000    	                	;
 NODE_1337595    	228.3498    	0.000000    	                	;
 NODE_1328019    	231.8869    	0.015833    	                	;
 NODE_1335710    	215.3329    	0.007500    	                	;
 NODE_1326293    	224.6347    	0.000000    	                	;
 NODE_1318585    	222.2143    	0.000000    	                	;
 NODE_1313361    	216.4840    	0.000000    	                	;
 NODE_1318574    	217.2702    	0.000000    	                	;
 NODE_1312879    	222.3465    	0.000417    	                	;
 NODE_1325914    	222.0873    	0.000000    	                	;
 NODE_1338974    	220.7438    	0.005000    	                	;
 NODE_1319570    	211.8489    	0.000000    	                	;
 NODE_1318953    	220.7534    	0.016250    	                	;
 NODE_1336322    	217.5855    	0.227500    	                	;
 NODE_1317917    	222.9825    	0.000000    	                	;
 NODE_1328036    	221.8795    	0.000000    	                	;
 NODE_1315087    	220.3017    	0.000000    	                	;
 NODE_1337459    	225.2414    	0.000000    	                	;
 NODE_1314993    	215.9954    	0.000000    	                	;
 NODE_1314103    	219.3942    	0.000000    	                	;
 NODE_1314129    	222.5361    	0.442083    	                	;
 NODE_1315000    	218.9197    	0.000000    	                	;
 NODE_1316595    	221.5287    	0.000000    	                	;
 NODE_1328031    	219.9822    	0.000000    	                	;
 NODE_1318361    	222.9301    	0.000000    	                	;
 NODE_1312590    	221.5094    	0.000000    	                	;
 NODE_1321081    	215.5165    	0.000000    	                	;
 NODE_1312636    	221.5156    	0.000000    	                	;
 NODE_1314133    	221.1576    	0.000000    	                	;
 NODE_1315119    	220.8837    	0.008333    	                	;
 NODE_1314323    	219.7901    	0.018750    	                	;
 NODE_1327710    	222.0495    	0.000000    	                	;
 NODE_1316987    	222.7160    	0.000000    	                	;
 NODE_1312859    	222.3504    	0.000000    	                	;
 NODE_1328037    	221.2131    	0.006250    	                	;
 NODE_1313078    	220.7833    	0.000000    	                	;
 NODE_1318576    	217.5163    	0.000000    	                	;
 NODE_1325772    	214.2068    	0.103750    	                	;
 NODE_1336945    	219.1874    	0.000000    	                	;
 NODE_1335857    	211.8191    	0.005833    	                	;
 NODE_1312119    	211.7812    	0.003750    	                	;
 NODE_1317925    	222.3145    	0.000000    	                	;
 NODE_1327724    	219.6141    	0.000000    	                	;
 NODE_1312829    	219.9259    	0.000000    	                	;
 NODE_1317912    	222.1962    	0.000000    	                	;
 NODE_1328034    	220.6560    	0.000000    	                	;
 NODE_1319318    	221.3033    	0.000000    	                	;
 NODE_1318581    	218.8803    	0.000000    	                	;
 NODE_1314996    	218.8134    	0.000000    	                	;
 NODE_1324552    	227.6567    	0.000000    	                	;
 NODE_1326089    	213.8049    	0.000000    	                	;
 NODE_1325598    	212.6828    	0.001667    	                	;
 NODE_1312127    	213.1633    	0.185417    	                	;
 NODE_1317946    	220.0639    	0.000000    	                	;
 NODE_1314332    	218.6323    	0.000000    	                	;
 NODE_1313358    	217.2428    	0.000000    	                	;
 NODE_1326905    	212.8846    	0.000000    	                	;
 NODE_1330905    	213.1382    	0.000000    	                	;
 NODE_1313359    	216.8503    	0.000000    	                	;
 NODE_1331600    	220.8581    	0.000000    	                	;
 NODE_1318586    	220.6396    	0.000000    	                	;
 NODE_1319321    	219.9921    	0.003333    	                	;
 NODE_1315390    	220.9602    	0.000000    	                	;
 NODE_1315011    	220.5068    	0.047083    	                	;
 NODE_1326119    	216.6884    	0.000000    	                	;
 NODE_1315116    	220.3682    	0.001250    	                	;
 NODE_1319320    	220.9068    	0.000000    	                	;
 NODE_1326312    	230.4480    	0.000000    	                	;
 NODE_1338938    	225.1682    	0.005833    	                	;
 NODE_1314808    	217.1684    	0.005417    	                	;
 NODE_1312068    	215.2437    	0.000000    	                	;
 NODE_1314320    	221.8047    	0.000000    	                	;
 NODE_1317037    	211.9906    	0.006250    	                	;
 NODE_1316877    	220.1496    	0.000000    	                	;
 NODE_1312083    	233.3929    	0.002917    	                	;
 NODE_1315130    	220.7884    	0.005000    	                	;
 NODE_1315010    	220.4012    	0.000000    	                	;
 NODE_1326303    	227.6754    	0.000000    	                	;
 NODE_1330683    	219.9163    	0.000000    	                	;
 NODE_1318590    	219.9798    	0.000000    	                	;
 NODE_1312848    	219.0728    	0.006250    	                	;
 NODE_1312120    	211.8226    	0.001667    	                	;
 NODE_1312126    	212.3106    	0.005833    	                	;
 NODE_1327723    	219.3458    	0.000000    	                	;
 NODE_1312111    	213.4291    	0.000417    	                	;
 NODE_1312114    	212.5750    	0.007083    	                	;
 NODE_1327699    	217.3651    	0.084167    	                	;
 NODE_1312072    	217.2827    	0.000000    	                	;
 NODE_1315019    	220.8271    	0.000000    	                	;
 NODE_1319322    	221.5492    	0.000000    	                	;
 NODE_1325596    	213.0401    	0.002500    	                	;
 NODE_1312843    	219.2611    	0.000000    	                	;
 NODE_1326308    	228.5311    	0.000000    	                	;
 NODE_1313365    	217.6655    	0.000000    	                	;
 NODE_1316875    	218.9011    	0.000000    	                	;
 NODE_1317921    	223.2425    	0.000000    	                	;
 NODE_1314123    	220.2212    	0.000000    	                	;
 NODE_1314806    	219.7850    	0.000000    	                	;
 NODE_1314094    	218.4419    	0.017500    	                	;
 NODE_1314102    	219.6145    	0.000000    	                	;
 NODE_1312110    	213.9733    	0.002917    	                	;
 NODE_1315118    	220.4137    	0.000000    	                	;
 NODE_1312846    	218.1576    	0.067917    	                	;
 NODE_1312866    	220.7415    	0.005000    	                	;
 NODE_1336171    	218.3960    	0.001667    	                	;
 NODE_1315089    	220.1596    	0.000000    	                	;
 NODE_1315080    	220.3704    	0.005417    	                	;
 NODE_1321942    	220.4960    	0.000000    	                	;
 NODE_1315003    	219.7373    	0.000000    	                	;
 NODE_1312857    	222.5913    	0.015000    	                	;
 NODE_1314805    	219.2237    	0.000000    	                	;
 NODE_1312638    	221.3606    	0.000000    	                	;
 NODE_1325548    	213.3696    	0.000000    	                	;
 NODE_1314098    	217.3877    	0.000000    	                	;
 NODE_1324562    	220.1487    	0.000000    	                	;
 NODE_1316633    	217.4051    	0.000000    	                	;
 NODE_1331593    	219.7871    	0.000000    	                	;
 NODE_1312595    	222.0962    	0.000000    	                	;
 NODE_1331460    	223.4821    	0.000000    	                	;
 NODE_1314104    	219.2469    	0.000000    	                	;
 NODE_1315007    	220.2358    	0.000000    	                	;
 NODE_1335753    	218.3630    	0.000000    	                	;
 NODE_1314998    	218.3260    	0.000000    	                	;
 NODE_1325798    	221.5993    	0.000000    	                	;
 NODE_1325218    	228.0870    	0.000000    	                	;
 NODE_1324505    	230.6955    	0.000000    	                	;
 NODE_1312828    	219.9496    	0.000000    	                	;
 NODE_1327712    	220.3368    	0.000000    	                	;
 NODE_1312625    	222.4348    	0.000000    	                	;
 NODE_1312601    	223.1330    	0.000000    	                	;
 NODE_1315865    	217.2158    	0.000000    	                	;
 NODE_1338758    	221.2692    	0.000000    	                	;
 NODE_1331347    	218.4811    	0.000000    	                	;
 NODE_1315376    	221.5163    	0.014583    	                	;
 NODE_1325247    	221.7748    	0.000000    	                	;
 NODE_1327722    	219.6984    	0.003750    	                	;
 NODE_1337145    	220.8270    	0.000000    	                	;
 NODE_1318177    	225.9138    	0.000000    	                	;
 NODE_1320574    	213.0832    	0.001250    	                	;
 NODE_1312607    	223.0399    	0.000000    	                	;
 NODE_1325507    	220.4364    	0.000417    	                	;
 NODE_1314329    	219.1707    	0.000000    	                	;
 NODE_1312616    	223.4729    	0.001250    	                	;
 NODE_1312833    	220.7109    	0.019167    	                	;
 NODE_1315143    	220.0105    	0.000000    	                	;
 NODE_1312631    	221.9133    	0.000000    	                	;
 NODE_1338759    	220.6301    	0.000000    	                	;
 NODE_1325745    	215.3954    	0.007917    	                	;
 NODE_1312081    	233.3795    	0.000000    	                	;
 NODE_1312125    	212.4919    	0.001667    	                	;
 NODE_1312836    	220.0531    	0.000000    	                	;
 NODE_1321943    	212.0495    	0.007500    	                	;
 NODE_1318587    	219.7130    	0.000000    	                	;
 NODE_1320802    	212.9671    	0.000000    	                	;
 NODE_1313356    	217.4439    	0.000000    	                	;
 NODE_1325770    	214.2419    	0.000000    	                	;
 NODE_1326405    	224.0481    	0.000000    	                	;
 NODE_1314991    	216.4924    	0.000000    	                	;
 NODE_1317942    	222.2824    	0.000000    	                	;
 NODE_1321654    	214.3286    	0.002917    	                	;
 NODE_1317936    	219.4051    	0.002917    	                	;
 NODE_1319837    	219.8439    	0.017917    	                	;
 NODE_1314317    	220.7849    	0.000000    	                	;
 NODE_1312117    	212.1113    	0.006667    	                	;
 NODE_1327727    	218.8632    	0.000000    	                	;
 NODE_1317920    	223.4481    	0.000000    	                	;
 NODE_1315136    	220.4224    	0.000000    	                	;
 NODE_1312600    	221.7129    	0.000000    	                	;
 NODE_1312614    	223.5075    	0.000000    	                	;
 NODE_1314101    	219.6672    	0.000000    	                	;
 NODE_1327708    	220.1996    	0.406250    	                	;
 NODE_1325336    	219.9178    	0.000000    	                	;
 NODE_1328033    	220.3040    	0.000000    	                	;
 NODE_1319791    	220.9170    	0.000000    	                	;
 NODE_1315022    	218.3233    	0.000000    	                	;
 NODE_1314918    	220.6132    	0.000000    	                	;
 NODE_1315102    	221.0348    	0.000000    	                	;
 NODE_1313353    	217.6811    	0.119583    	                	;
 NODE_1325549    	213.1737    	0.000000    	                	;
 NODE_1335657    	213.3971    	0.004583    	                	;
 NODE_1325067    	215.5824    	0.017083    	                	;
 NODE_1316013    	217.7022    	0.000000    	                	;
 NODE_1317922    	222.7948    	0.000000    	                	;
 NODE_1328030    	220.1081    	0.000000    	                	;
 NODE_1312863    	221.5956    	0.000000    	                	;
 NODE_1317934    	219.2018    	0.004167    	                	;
 NODE_1317039    	214.1579    	0.005000    	                	;
 NODE_1317935    	219.4177    	0.000000    	                	;
 NODE_1312827    	220.0054    	0.000000    	                	;
 NODE_1314919    	220.5182    	0.000000    	                	;
 NODE_1312871    	219.6794    	0.032500    	                	;
 NODE_1320805    	220.0347    	0.000000    	                	;
 NODE_1317919    	223.4843    	0.000000    	                	;
 NODE_1315101    	220.7406    	0.000000    	                	;
 NODE_1315375    	220.1352    	0.009167    	                	;
 NODE_1326292    	227.9817    	0.000000    	                	;
 NODE_1312834    	220.9471    	0.000000    	                	;
 NODE_1329877    	219.3820    	0.000000    	                	;
 NODE_1314135    	219.7295    	0.000000    	                	;
 NODE_1312086    	232.3863    	0.005417    	                	;
 NODE_1317038    	211.9586    	0.000000    	                	;
 NODE_1326306    	227.9222    	0.000000    	                	;
 NODE_1313368    	215.7098    	0.055417    	                	;
 NODE_1330728    	217.0721    	0.004167    	                	;
 NODE_1312116    	212.2098    	0.002917    	                	;
 NODE_1315114    	220.5822    	0.024167    	                	;
 NODE_1325213    	215.7077    	0.000000    	                	;
 NODE_1312874    	222.4425    	0.000000    	                	;
 NODE_1312588    	221.3773    	0.000000    	                	;
 NODE_1312593    	221.6568    	0.003750    	                	;
 NODE_1312603    	223.3766    	0.000000    	                	;
 NODE_1326779    	222.2810    	0.000000    	                	;
 NODE_1327697    	219.1591    	0.000000    	                	;
 NODE_1315131    	221.9450    	0.000000    	                	;
 NODE_1334476    	219.2123    	0.000000    	                	;
 NODE_1312849    	218.2064    	0.000000    	                	;
 NODE_1323645    	218.5360    	0.000000    	                	;
 NODE_1327702    	218.9057    	0.000000    	                	;
 NODE_1329876    	220.8914    	0.000000    	                	;
 NODE_1331415    	228.4269    	0.000000    	                	;
 NODE_1338926    	218.7241    	0.000833    	                	;
 NODE_1338760    	221.4883    	0.000000    	                	;
 NODE_1325508    	220.3881    	0.002083    	                	;
 NODE_1312598    	222.4267    	0.000000    	                	;
 NODE_1314125    	221.5546    	0.003750    	                	;
 NODE_1316588    	220.3630    	0.003333    	                	;
 NODE_1312591    	221.5546    	0.000000    	                	;
 NODE_1336946    	219.2657    	0.000000    	                	;
 NODE_1335714    	215.3071    	0.000000    	                	;
 NODE_1314126    	221.5719    	0.000000    	                	;
 NODE_1313357    	217.3502    	0.000000    	                	;
 NODE_1314807    	217.2364    	0.000000    	                	;
 NODE_1317041    	212.3930    	0.000833    	                	;
 NODE_1322188    	219.2115    	0.000000    	                	;
 NODE_1334159    	229.0918    	0.000000    	                	;
 NODE_1335713    	215.0437    	0.000000    	                	;
 NODE_1319836    	223.1802    	0.000000    	                	;
 NODE_1337806    	216.1751    	0.000000    	                	;
 NODE_9355893    	223.4883    	0.000000    	                	;
 NODE_1325243    	215.3750    	0.000000    	                	;
 NODE_1312864    	221.5208    	0.000000    	                	;
 NODE_1326027    	213.2830    	0.000000    	                	;
 NODE_1325790    	219.2704    	0.000000    	                	;
 NODE_1326294    	223.7080    	0.000000    	                	;
 NODE_1330518    	217.7159    	0.000000    	                	;
 NODE_1334153    	219.3342    	0.000000    	                	;
 NODE_1315140    	219.8574    	0.000000    	                	;
 NODE_1318582    	218.3059    	0.000000    	                	;
 NODE_1331145    	216.7137    	0.000000    	                	;
 NODE_1319267    	219.2466    	0.000000    	                	;
 NODE_1312845    	219.4590    	0.067917    	                	;
 NODE_1326118    	217.6772    	0.000000    	                	;
 NODE_1337982    	215.9565    	0.005417    	                	;
 NODE_1312617    	223.2365    	0.000000    	                	;
 NODE_1315110    	221.0134    	0.007083    	                	;
 NODE_1325594    	211.9353    	0.000000    	                	;
 NODE_1338234    	213.8036    	0.000000    	                	;
 NODE_1323242    	221.4845    	0.000000    	                	;
 NODE_1329886    	219.5137    	0.000000    	                	;
 NODE_1335859    	222.9493    	0.000000    	                	;
 NODE_1314119    	219.2907    	0.000000    	                	;
 NODE_1315111    	221.4464    	0.000000    	                	;
 NODE_1336976    	222.2626    	0.000833    	                	;
 NODE_1315687    	214.3627    	0.005000    	                	;
 NODE_1328495    	213.9251    	0.060417    	                	;
 NODE_1314892    	215.5146    	0.000000    	                	;
 NODE_1314989    	217.4868    	0.000000    	                	;
 NODE_1322170    	219.4302    	0.000000    	                	;
 NODE_1312847    	218.9397    	0.001667    	                	;
 NODE_1312837    	220.1380    	0.006667    	                	;
 NODE_1317042    	211.9083    	0.005000    	                	;
 NODE_1312822    	220.8551    	0.000000    	                	;
 NODE_1312826    	220.2198    	0.000000    	                	;
 NODE_1324022    	219.8458    	0.000000    	                	;
 NODE_1323051    	223.3443    	0.000000    	                	;
 NODE_1312597    	222.3167    	0.000000    	                	;
 NODE_1317914    	221.7132    	0.000000    	                	;
 NODE_1314100    	217.1839    	0.000000    	                	;
 NODE_1314110    	218.4638    	0.000000    	                	;
 NODE_1328029    	220.3559    	0.000000    	                	;