[TITLE]
Converted from Epanet to Staci, case name: brennberg.spr


[JUNCTIONS]
;ID              	Elev        	Demand      	Pattern         
 NODE_1315668    	408.9465    	0.000000    	                	;
 NODE_1325443    	419.2303    	0.000833    	                	;
 NODE_1316506    	418.6339    	0.001250    	                	;
 NODE_1316505    	418.8177    	0.002083    	                	;
 NODE_1334736    	417.0335    	0.002083    	                	;
 NODE_1331831    	401.2230    	0.000000    	                	;
 NODE_1316764    	398.8597    	0.002917    	                	;
 NODE_1338256    	403.7380    	0.001250    	                	;
 NODE_1325454    	427.3232    	0.000833    	                	;
 NODE_1322229    	435.2604    	0.000417    	                	;
 NODE_1318998    	405.9663    	0.003333    	                	;
 NODE_1334734    	445.1183    	0.003333    	                	;
 NODE_1316514    	436.0235    	0.000000    	                	;
 NODE_1334213    	400.2834    	0.000000    	                	;
 NODE_1334011    	403.8165    	0.000000    	                	;
 NODE_1317985    	429.1238    	0.004167    	                	;
 NODE_1334212    	425.4184    	0.000000    	                	;
 NODE_1331837    	431.3206    	0.000833    	                	;
 NODE_13412503   	410.7105    	0.000000    	                	;
 NODE_1337606    	420.2567    	0.001250    	                	;
 NODE_1316770    	432.8844    	0.000833    	                	;
 NODE_1334216    	420.1257    	0.000000    	                	;
 NODE_1331836    	431.2190    	0.000833    	                	;
 NODE_1334735    	418.9194    	0.000000    	                	;
 NODE_1333502    	399.0890    	0.000833    	                	;
 NODE_1316507    	408.5341    	0.000833    	                	;
 NODE_1322776    	398.4164    	0.000833    	                	;
 NODE_1318996    	421.5226    	0.000000    	                	;
 NODE_1335235    	417.7348    	0.000000    	                	;
 NODE_1331834    	430.6171    	0.002083    	                	;
 NODE_1325435    	417.5297    	0.000833    	                	;
 NODE_1336464    	369.9548    	0.002917    	                	;
 NODE_13412320   	405.1172    	0.000000    	                	;
 NODE_1325439    	421.9801    	0.001667    	                	;
 NODE_1331661    	428.6250    	0.006667    	                	;
 NODE_1330085    	401.7877    	0.000000    	                	;
 NODE_1325450    	398.1576    	0.002500    	                	;
 NODE_1316512    	428.4667    	0.007500    	                	;
 NODE_1334207    	416.0022    	0.000000    	                	;
 NODE_7846664    	399.8396    	0.000000    	                	;
 NODE_1319000    	371.8421    	0.005000    	                	;
 NODE_1334729    	425.8659    	0.007083    	                	;
 NODE_1318997    	431.6995    	0.000000    	                	;
 NODE_1336474    	411.6725    	0.002083    	                	;
 NODE_1331833    	399.6305    	0.002500    	                	;
 NODE_1316258    	415.0428    	0.002083    	                	;
 NODE_1316763    	401.6263    	0.005833    	                	;
 NODE_1320041    	425.3261    	0.013750    	                	;
 NODE_1331813    	383.4806    	0.002083    	                	;
 NODE_1318992    	399.3664    	0.000000    	                	;
 NODE_1333506    	410.0159    	0.000000    	                	;
 NODE_1338251    	408.6068    	0.000000    	                	;
 NODE_1331656    	431.2600    	0.000000    	                	;
 NODE_1335236    	427.2227    	0.000000    	                	;
 NODE_1335240    	422.4027    	0.005833    	                	;
 NODE_1334220    	383.4088    	0.000000    	                	;
 NODE_1334706    	401.4450    	0.000000    	                	;
 NODE_1316034    	425.2552    	0.000000    	                	;
 NODE_1325436    	415.3869    	0.005833    	                	;
 NODE_1338335    	400.6680    	0.000000    	                	;
 NODE_1336777    	401.7220    	0.000417    	                	;
 NODE_1318081    	417.3334    	0.000417    	                	;
 NODE_1331826    	405.4231    	0.005417    	                	;
 NODE_1334010    	433.3918    	0.000000    	                	;
 NODE_1335239    	399.7459    	0.003333    	                	;
 NODE_1336317    	429.4770    	0.002917    	                	;
 NODE_1331815    	419.2493    	0.000417    	                	;
 NODE_1325456    	428.0725    	0.006250    	                	;
 NODE_1325445    	416.7039    	0.007500    	                	;
 NODE_1315741    	416.7422    	0.001250    	                	;
 NODE_1325460    	424.4542    	0.003750    	                	;
 NODE_1331835    	430.6426    	0.008750    	                	;
 NODE_1320614    	398.8779    	0.001250    	                	;
 NODE_1321428    	419.6042    	0.005833    	                	;
 NODE_1318493    	419.5573    	0.000000    	                	;
 NODE_1337898    	423.4277    	0.001250    	                	;
 NODE_1325459    	434.0999    	0.003750    	                	;
 NODE_1334210    	372.4401    	0.000000    	                	;
 NODE_1331814    	421.7148    	0.000000    	                	;
 NODE_1325455    	427.4331    	0.000000    	                	;
 NODE_1316762    	408.7207    	0.000417    	                	;
 NODE_1336477    	431.4740    	0.000000    	                	;
 NODE_1336475    	416.5307    	0.000000    	                	;
 NODE_1325449    	398.5275    	0.006250    	                	;
 NODE_1325440    	416.8283    	0.000000    	                	;
 NODE_1334716    	423.0837    	0.000000    	                	;
 NODE_1336776    	382.3952    	0.003750    	                	;
 NODE_1334710    	439.9130    	0.000000    	                	;
 NODE_1315743    	451.2525    	0.012083    	                	;
 NODE_1336321    	412.0296    	0.000000    	                	;
 NODE_1321680    	413.2042    	0.000000    	                	;
 NODE_1318999    	417.0154    	0.000000    	                	;
 NODE_1334214    	429.1210    	0.000000    	                	;
 NODE_1334731    	424.3727    	0.017500    	                	;
 NODE_1316508    	402.8585    	0.002917    	                	;
 NODE_1336478    	431.5078    	0.001667    	                	;
 NODE_1316765    	397.2565    	0.003750    	                	;
 NODE_1325461    	422.3850    	0.010417    	                	;
 NODE_1337893    	418.0364    	0.000833    	                	;
 NODE_1315745    	452.1036    	0.008750    	                	;
 NODE_1333509    	421.7972    	0.004583    	                	;
 NODE_1315667    	400.4962    	0.000833    	                	;
 NODE_1335246    	370.1821    	0.000417    	                	;
 NODE_1336320    	419.8184    	0.003333    	                	;
 NODE_1338860    	427.3755    	0.001250    	                	;
 NODE_1331820    	400.4015    	0.001250    	                	;
 NODE_1336372    	414.5439    	0.012917    	                	;
 NODE_1315744    	408.9974    	0.000000    	                	;
 NODE_1332030    	386.0906    	0.001250    	                	;
 NODE_1336463    	371.4470    	0.000833    	                	;
 NODE_1334204    	421.6051    	0.000000    	                	;
 NODE_1331828    	412.0269    	0.008750    	                	;
 NODE_1334209    	398.4954    	0.000000    	                	;
 NODE_1318995    	399.9684    	0.000000    	                	;
 NODE_1325442    	420.0196    	0.004583    	                	;
 NODE_1331830    	420.1316    	0.008333    	                	;
 NODE_1333522    	429.6680    	0.000000    	                	;
 NODE_1336465    	370.3903    	0.000417    	                	;
 NODE_1324235    	445.7577    	0.005417    	                	;
 NODE_1335237    	431.0472    	0.002083    	                	;
 NODE_1331822    	398.2143    	0.002083    	                	;
 NODE_1316767    	415.1270    	0.000833    	                	;
 NODE_1315669    	423.0401    	0.000000    	                	;
 NODE_1325453    	426.3408    	0.006250    	                	;
 NODE_1336471    	407.4053    	0.001250    	                	;
 NODE_1315671    	403.3594    	0.001250    	                	;
 NODE_1334217    	437.8723    	0.000000    	                	;
 NODE_5810090    	409.6641    	0.000000    	                	;
 NODE_1334732    	428.8315    	0.002500    	                	;
 NODE_1327512    	408.7294    	0.001250    	                	;
 NODE_1324227    	426.3312    	0.004167    	                	;
 NODE_1336468    	379.4988    	0.004167    	                	;
 NODE_1334725    	383.5946    	0.015000    	                	;
 NODE_1325462    	431.1445    	0.007083    	                	;
 NODE_13638373   	429.4438    	0.000000    	                	;
 NODE_1325444    	407.2587    	0.000417    	                	;
 NODE_1331824    	418.7029    	0.005833    	                	;
 NODE_1316761    	399.5719    	0.001250    	                	;
 NODE_1316259    	419.3370    	0.007917    	                	;
 NODE_1325452    	433.6538    	0.002500    	                	;
 NODE_1334737    	408.6725    	0.000000    	                	;
 NODE_1331818    	417.6521    	0.002500    	                	;
 NODE_1325437    	423.6464    	0.004583    	                	;
 NODE_1331829    	414.5203    	0.001667    	                	;
 NODE_1325446    	406.1541    	0.000833    	                	;
 NODE_1336315    	417.3209    	0.005417    	                	;
 NODE_1316769    	429.8513    	0.000417    	                	;
 NODE_1334218    	402.9242    	0.002500    	                	;
 NODE_1327510    	407.1431    	0.000000    	                	;
 NODE_1336470    	406.2059    	0.001250    	                	;
 NODE_1318080    	426.6971    	0.009583    	                	;
 NODE_1331827    	410.2034    	0.000417    	                	;
 NODE_1336469    	405.0328    	0.000417    	                	;
 NODE_1334727    	426.9020    	0.001250    	                	;
 NODE_1336467    	375.7583    	0.000000    	                	;
 NODE_1334730    	429.7184    	0.008333    	                	;
 NODE_1331825    	404.8364    	0.001667    	                	;
 NODE_1325438    	423.3769    	0.000417    	                	;
 NODE_1338794    	422.9311    	0.000833    	                	;
 NODE_1316511    	432.6493    	0.001250    	                	;
 NODE_1331819    	414.3122    	0.005000    	                	;
 NODE_1333504    	399.6027    	0.014167    	                	;
 NODE_1321682    	424.5966    	0.001250    	                	;
 NODE_1337465    	406.7100    	0.003333    	                	;
 NODE_1331832    	401.7190    	0.000833    	                	;
 NODE_1336466    	374.0939    	0.000833    	                	;
 NODE_1334211    	403.1525    	0.000000    	                	;
 NODE_1336479    	431.6203    	0.006667    	                	;
 NODE_1333505    	383.1220    	0.003333    	                	;
 NODE_1335245    	417.3441    	0.000000    	                	;
 NODE_1315672    	431.6222    	0.002917    	                	;
 NODE_1331817    	424.8005    	0.002500    	                	;
 NODE_1325448    	399.0219    	0.001667    	                	;
 NODE_1325441    	419.7551    	0.004167    	                	;
 NODE_1324237    	421.2839    	0.002917    	                	;
 NODE_1334005    	399.7059    	0.002083    	                	;
 NODE_1316768    	399.5689    	0.002500    	                	;
 NODE_1334733    	441.1698    	0.006250    	                	;
 NODE_1318993    	419.0825    	0.000000    	                	;
 NODE_5810398    	405.1489    	0.001667    	                	;
 NODE_1316766    	408.2627    	0.002917    	                	;
 NODE_1334007    	418.6974    	0.000000    	                	;
 NODE_1334721    	407.9997    	0.000000    	                	;
 NODE_1334712    	423.0054    	0.000000    	                	;
 NODE_1338048    	405.5229    	0.000000    	                	;
 NODE_1335247    	424.0465    	0.005417    	                	;
 NODE_1331821    	399.3744    	0.006250    	                	;
 NODE_1334711    	428.1423    	0.000000    	                	;
 NODE_1325447    	401.9712    	0.001250    	                	;
 NODE_1331816    	418.1163    	0.002083    	                	;
 NODE_1336476    	431.3567    	0.000833    	                	;
 NODE_1334012    	397.4331    	0.004583    	                	;
 NODE_1334208    	450.7571    	0.004167    	                	;
 NODE_1331812    	379.7165    	0.002083    	                	;
 NODE_1333500    	409.6992    	0.004583    	                	;
 NODE_1323735    	420.0359    	0.006250    	                	;
 NODE_1331823    	398.2357    	0.000000    	                	;
 NODE_1318994    	400.1361    	0.004583    	                	;
 NODE_1325451    	436.4856    	0.005833    	                	;
 NODE_1334709    	423.0876    	0.000000    	                	;
 NODE_1316510    	438.2962    	0.006250    	                	;
 NODE_4696       	412.3562    	0.000000    	                	;
 NODE_4696_1     	412.3795    	0.000000    	                	;
 NODE_1347769    	410.4845    	0.000000    	                	;
 NODE_4712       	417.3397    	0.000000    	                	;
 NODE_4712_1     	417.5137    	0.000000    	                	;
 NODE_3995862    	400.5449    	0.000000    	                	;
 NODE_11294902   	473.5417    	0.555556    	                	;
 NODE_1345206    	429.0361    	0.000000    	                	;
 NODE_4723       	400.3605    	0.000000    	                	;
 NODE_4723_1     	400.3445    	0.000000    	                	;
 NODE_1347308    	417.2904    	0.000000    	                	;
 NODE_4672       	430.1802    	0.000000    	                	;
 NODE_4672_1     	430.3583    	0.000000    	                	;
 NODE_4682       	426.9286    	0.000000    	                	;
 NODE_4682_1     	426.4933    	0.000000    	                	;
 NODE_1346898    	401.4769    	0.000000    	                	;
 NODE_4698       	412.3078    	0.000000    	                	;
 NODE_4698_1     	412.3311    	0.000000    	                	;
 NODE_4679       	416.8189    	0.000000    	                	;
 NODE_4679_1     	416.8289    	0.000000    	                	;
 NODE_1347232    	421.9941    	0.000000    	                	;
 NODE_4678       	416.8394    	0.000000    	                	;
 NODE_4678_1     	416.8494    	0.000000    	                	;
 NODE_1347357    	421.7651    	0.000000    	                	;
 NODE_1347199    	421.5419    	0.000000    	                	;
 NODE_1347236    	398.1114    	0.000000    	                	;
 NODE_4692       	429.0691    	0.000000    	                	;
 NODE_4692_1     	429.2741    	0.000000    	                	;
 NODE_4699       	401.4900    	0.000000    	                	;
 NODE_4699_1     	401.4126    	0.000000    	                	;
 NODE_1347178    	400.7746    	0.000000    	                	;
 NODE_4743       	410.4102    	0.000000    	                	;
 NODE_4743_1     	410.3022    	0.000000    	                	;
 NODE_1347356    	416.8176    	0.000000    	                	;
 NODE_4689       	392.1511    	0.000000    	                	;
 NODE_4689_1     	392.1931    	0.000000    	                	;
 NODE_11294844   	415.5490    	0.000000    	                	;
 NODE_1346901    	472.7555    	0.000000    	                	;
 NODE_4733       	418.7120    	0.000000    	                	;
 NODE_4733_1     	418.6879    	0.000000    	                	;
 NODE_1346899    	426.7058    	0.000000    	                	;
 NODE_4707       	400.7787    	0.000000    	                	;
 NODE_4707_1     	400.8287    	0.000000    	                	;
 NODE_4677       	416.8152    	0.000000    	                	;
 NODE_4677_1     	416.8252    	0.000000    	                	;
 NODE_4684       	383.4244    	0.000000    	                	;
 NODE_4684_1     	383.3154    	0.000000    	                	;
 NODE_4719       	412.6568    	0.000000    	                	;
 NODE_4719_1     	412.6848    	0.000000    	                	;
 NODE_3968561    	470.5549    	0.000000    	                	;
 NODE_4742       	410.5540    	0.000000    	                	;
 NODE_4742_1     	410.4460    	0.000000    	                	;
 NODE_4697       	412.2958    	0.000000    	                	;
 NODE_4697_1     	412.3191    	0.000000    	                	;
 NODE_4706       	400.8027    	0.000000    	                	;
 NODE_4706_1     	400.8527    	0.000000    	                	;
 NODE_1347358    	421.6340    	0.000000    	                	;
 NODE_1345179    	392.1210    	0.000000    	                	;
 NODE_4700       	401.4685    	0.000000    	                	;
 NODE_4700_1     	401.3912    	0.000000    	                	;
 NODE_1345204    	431.6748    	0.000000    	                	;
 NODE_1347269    	430.2548    	0.000000    	                	;
 NODE_1347157    	423.7833    	0.000000    	                	;
 NODE_1347392    	426.8759    	0.000000    	                	;
 NODE_4746       	426.6004    	0.000000    	                	;
 NODE_4746_1     	426.8024    	0.000000    	                	;
 NODE_4744       	410.4984    	0.000000    	                	;
 NODE_4744_1     	410.3904    	0.000000    	                	;
 NODE_1347179    	412.3306    	0.000000    	                	;
 NODE_8828       	421.6095    	0.000000    	                	;
 NODE_8828_1     	421.8695    	0.000000    	                	;
 NODE_4705       	400.7716    	0.000000    	                	;
 NODE_4705_1     	400.8216    	0.000000    	                	;
 NODE_4717       	421.8279    	0.000000    	                	;
 NODE_4717_1     	422.0879    	0.000000    	                	;
 NODE_1347418    	415.5079    	0.000000    	                	;
 NODE_4711       	431.6777    	0.000000    	                	;
 NODE_4711_1     	431.3244    	0.000000    	                	;
 NODE_4693       	421.4806    	0.000000    	                	;
 NODE_4693_1     	421.6826    	0.000000    	                	;
 NODE_1345205    	412.7050    	0.000000    	                	;

[RESERVOIRS]
;ID              	Head        	Pattern         

[TANKS]
;ID             	Elevation   	InitLevel   	MinLevel    	MaxLevel    	Diameter    	MinVol      	VolCurve
 POOL_219        	465.7700    	1.6500      	0.0000      	1000.0000   	9.0032      	0.0000      	                	

[PIPES]
;ID             	Node1           	Node2           	Length      	Diameter    	Roughness   	MinorLoss   	Status
 PIPE_778311     	NODE_1347358    	NODE_1347357    	1.2876      	160.0000    	0.0200     	0.0000      	Open  ;
 PIPE_784353     	NODE_1345206    	NODE_1347392    	28.8138     	160.0000    	0.0200     	0.0000      	Open  ;
 PIPE_784461     	NODE_1347157    	NODE_1315672    	55.7805     	63.0000     	0.0200     	0.0000      	Open  ;
 PIPE_784626     	NODE_1347308    	NODE_1318081    	3.2540      	160.0000    	0.0200     	0.0000      	Open  ;
 PIPE_784749     	POOL_219        	NODE_1347418    	337.9928    	160.0000    	0.0200     	0.0000      	Open  ;
 PIPE_784750     	NODE_11294844   	NODE_1347418    	3.3580      	160.0000    	0.0200     	0.0000      	Open  ;
 PIPE_784762     	NODE_1346901    	NODE_3968561    	19.2334     	150.0000    	0.0200     	0.0000      	Open  ;
 PIPE_1350080    	NODE_1336465    	NODE_1336464    	23.7835     	110.0000    	0.0200     	0.0000      	Open  ;
 PIPE_1350090    	NODE_1336467    	NODE_1336466    	21.3327     	110.0000    	0.0200     	0.0000      	Open  ;
 PIPE_1350095    	NODE_1336468    	NODE_1336467    	17.0528     	110.0000    	0.0200     	0.0000      	Open  ;
 PIPE_1350122    	NODE_1345205    	NODE_1336474    	17.4793     	160.0000    	0.0200     	0.0000      	Open  ;
 PIPE_1350130    	NODE_1345204    	NODE_1336476    	10.0524     	160.0000    	0.0200     	0.0000      	Open  ;
 PIPE_1350134    	NODE_1336476    	NODE_1336477    	7.8713      	160.0000    	0.0200     	0.0000      	Open  ;
 PIPE_1350139    	NODE_1336477    	NODE_1336478    	3.6346      	160.0000    	0.0200     	0.0000      	Open  ;
 PIPE_1350144    	NODE_1336478    	NODE_1336479    	12.4856     	160.0000    	0.0200     	0.0000      	Open  ;
 PIPE_1350145    	NODE_1336479    	NODE_1345206    	37.4121     	160.0000    	0.0200     	0.0000      	Open  ;
 PIPE_1351180    	NODE_1336463    	NODE_1334210    	39.4648     	110.0000    	0.0200     	0.0000      	Open  ;
 PIPE_1368248    	NODE_1334733    	NODE_1334734    	26.6047     	110.0000    	0.0200     	0.0000      	Open  ;
 PIPE_1368253    	NODE_1315743    	NODE_1315745    	6.1086      	110.0000    	0.0200     	0.0000      	Open  ;
 PIPE_1368439    	NODE_1347269    	NODE_1334727    	49.3207     	110.0000    	0.0200     	0.0000      	Open  ;
 PIPE_1368440    	NODE_1334727    	NODE_1346899    	1.6011      	110.0000    	0.0200     	0.0000      	Open  ;
 PIPE_1368443    	NODE_1336474    	NODE_1327512    	32.6253     	160.0000    	0.0200     	0.0000      	Open  ;
 PIPE_1368444    	NODE_1327512    	NODE_1347769    	87.3605     	160.0000    	0.0200     	0.0000      	Open  ;
 PIPE_1368453    	NODE_1347199    	NODE_1334721    	123.1271    	110.0000    	0.0200     	0.0000      	Open  ;
 PIPE_1368505    	NODE_1334731    	NODE_1334732    	28.7899     	110.0000    	0.0200     	0.0000      	Open  ;
 PIPE_1386059    	NODE_1337893    	NODE_1318493    	45.0204     	110.0000    	0.0200     	0.0000      	Open  ;
 PIPE_1386578    	NODE_1336466    	NODE_1319000    	17.6076     	110.0000    	0.0200     	0.0000      	Open  ;
 PIPE_1386579    	NODE_1319000    	NODE_1336465    	12.9848     	110.0000    	0.0200     	0.0000      	Open  ;
 PIPE_1386982    	NODE_1315744    	NODE_1315668    	0.8971      	110.0000    	0.0200     	0.0000      	Open  ;
 PIPE_1386991    	NODE_1338335    	NODE_1334218    	74.9681     	110.0000    	0.0200     	0.0000      	Open  ;
 PIPE_1387274    	NODE_1318992    	NODE_1334005    	14.5886     	110.0000    	0.0200     	0.0000      	Open  ;
 PIPE_1387566    	NODE_1347157    	NODE_1334716    	8.4410      	110.0000    	0.0200     	0.0000      	Open  ;
 PIPE_1388558    	NODE_1336464    	NODE_1335246    	3.7654      	110.0000    	0.0200     	0.0000      	Open  ;
 PIPE_1388559    	NODE_1335246    	NODE_1336463    	23.4776     	110.0000    	0.0200     	0.0000      	Open  ;
 PIPE_1388564    	NODE_1318081    	NODE_1335245    	0.8136      	160.0000    	0.0200     	0.0000      	Open  ;
 PIPE_1388570    	NODE_1316259    	NODE_1337893    	57.6441     	110.0000    	0.0200     	0.0000      	Open  ;
 PIPE_1388924    	NODE_1333509    	NODE_1315669    	20.9049     	110.0000    	0.0200     	0.0000      	Open  ;
 PIPE_1388925    	NODE_1315669    	NODE_1334731    	8.4582      	110.0000    	0.0200     	0.0000      	Open  ;
 PIPE_1388930    	NODE_1335235    	NODE_1334207    	190.0269    	110.0000    	0.0200     	0.0000      	Open  ;
 PIPE_1389301    	NODE_1347236    	NODE_1335239    	18.5331     	110.0000    	0.0200     	0.0000      	Open  ;
 PIPE_1389302    	NODE_1335239    	NODE_1318995    	2.1471      	110.0000    	0.0200     	0.0000      	Open  ;
 PIPE_1389309    	NODE_1347308    	NODE_1316258    	37.5313     	160.0000    	0.0200     	0.0000      	Open  ;
 PIPE_1389313    	NODE_1316258    	NODE_1321680    	18.2633     	160.0000    	0.0200     	0.0000      	Open  ;
 PIPE_1389314    	NODE_1321680    	NODE_1345205    	13.2853     	160.0000    	0.0200     	0.0000      	Open  ;
 PIPE_1389318    	NODE_1336471    	NODE_1337465    	25.0990     	110.0000    	0.0200     	0.0000      	Open  ;
 PIPE_1389319    	NODE_1337465    	NODE_1336470    	15.6665     	110.0000    	0.0200     	0.0000      	Open  ;
 PIPE_1389325    	NODE_1334204    	NODE_1318996    	10.5230     	110.0000    	0.0200     	0.0000      	Open  ;
 PIPE_1389427    	NODE_1334737    	NODE_1333506    	28.6913     	110.0000    	0.0200     	0.0000      	Open  ;
 PIPE_1389534    	NODE_1331661    	NODE_1335236    	16.4540     	110.0000    	0.0200     	0.0000      	Open  ;
 PIPE_1389535    	NODE_1335236    	NODE_1334212    	21.0171     	110.0000    	0.0200     	0.0000      	Open  ;
 PIPE_1389540    	NODE_1327510    	NODE_1338048    	21.8345     	110.0000    	0.0200     	0.0000      	Open  ;
 PIPE_1389541    	NODE_1338048    	NODE_1315671    	22.5546     	110.0000    	0.0200     	0.0000      	Open  ;
 PIPE_1389546    	NODE_1334706    	NODE_1315667    	12.9702     	110.0000    	0.0200     	0.0000      	Open  ;
 PIPE_1389550    	NODE_1347236    	NODE_1334012    	10.9022     	110.0000    	0.0200     	0.0000      	Open  ;
 PIPE_1389556    	NODE_1338251    	NODE_1334737    	4.2158      	110.0000    	0.0200     	0.0000      	Open  ;
 PIPE_1389727    	NODE_1336315    	NODE_1318999    	35.3629     	110.0000    	0.0200     	0.0000      	Open  ;
 PIPE_1389733    	NODE_1318999    	NODE_1325440    	36.3578     	110.0000    	0.0200     	0.0000      	Open  ;
 PIPE_1389739    	NODE_1325440    	NODE_1316506    	24.9711     	110.0000    	0.0200     	0.0000      	Open  ;
 PIPE_1389751    	NODE_1337606    	NODE_1325442    	10.5986     	110.0000    	0.0200     	0.0000      	Open  ;
 PIPE_1389757    	NODE_1325442    	NODE_1325443    	11.5737     	110.0000    	0.0200     	0.0000      	Open  ;
 PIPE_1389906    	NODE_1347232    	NODE_1325462    	124.1807    	110.0000    	0.0200     	0.0000      	Open  ;
 PIPE_1389907    	NODE_1325462    	NODE_1334010    	15.8775     	110.0000    	0.0200     	0.0000      	Open  ;
 PIPE_1390122    	NODE_1320614    	NODE_3995862    	61.5261     	110.0000    	0.0200     	0.0000      	Open  ;
 PIPE_1390126    	NODE_1345179    	NODE_1316765    	118.4556    	110.0000    	0.0200     	0.0000      	Open  ;
 PIPE_1390127    	NODE_1316765    	NODE_1320614    	48.6576     	110.0000    	0.0200     	0.0000      	Open  ;
 PIPE_1390132    	NODE_1318993    	NODE_1331824    	2.8926      	110.0000    	0.0200     	0.0000      	Open  ;
 PIPE_1390139    	NODE_1316766    	NODE_1336471    	23.5146     	110.0000    	0.0200     	0.0000      	Open  ;
 PIPE_1390483    	NODE_1331828    	NODE_1331827    	19.8248     	110.0000    	0.0200     	0.0000      	Open  ;
 PIPE_1390494    	NODE_1331824    	NODE_1316767    	39.5812     	110.0000    	0.0200     	0.0000      	Open  ;
 PIPE_1390495    	NODE_1316767    	NODE_1331829    	7.4024      	110.0000    	0.0200     	0.0000      	Open  ;
 PIPE_1390501    	NODE_1335247    	NODE_1331830    	34.0857     	110.0000    	0.0200     	0.0000      	Open  ;
 PIPE_1390502    	NODE_1331830    	NODE_1318993    	8.0707      	110.0000    	0.0200     	0.0000      	Open  ;
 PIPE_1390750    	NODE_1331832    	NODE_1331831    	22.2890     	110.0000    	0.0200     	0.0000      	Open  ;
 PIPE_1390763    	NODE_1315667    	NODE_1331833    	19.8330     	110.0000    	0.0200     	0.0000      	Open  ;
 PIPE_1390764    	NODE_1331833    	NODE_1316768    	2.4392      	110.0000    	0.0200     	0.0000      	Open  ;
 PIPE_1390770    	NODE_1346899    	NODE_1321682    	17.1926     	110.0000    	0.0200     	0.0000      	Open  ;
 PIPE_1390771    	NODE_1321682    	NODE_1347199    	26.2070     	110.0000    	0.0200     	0.0000      	Open  ;
 PIPE_1390782    	NODE_1316769    	NODE_1333522    	7.9212      	110.0000    	0.0200     	0.0000      	Open  ;
 PIPE_1392141    	NODE_1333505    	NODE_1336776    	10.1517     	110.0000    	0.0200     	0.0000      	Open  ;
 PIPE_1392148    	NODE_1336776    	NODE_1331812    	26.5345     	110.0000    	0.0200     	0.0000      	Open  ;
 PIPE_1392149    	NODE_1331812    	NODE_1336468    	5.0851      	110.0000    	0.0200     	0.0000      	Open  ;
 PIPE_1392155    	NODE_1334220    	NODE_1331813    	0.5611      	110.0000    	0.0200     	0.0000      	Open  ;
 PIPE_1392160    	NODE_1333504    	NODE_1316761    	0.4893      	110.0000    	0.0200     	0.0000      	Open  ;
 PIPE_1392161    	NODE_1316761    	NODE_1334209    	17.0912     	110.0000    	0.0200     	0.0000      	Open  ;
 PIPE_1392345    	NODE_1325444    	NODE_1316507    	40.5673     	110.0000    	0.0200     	0.0000      	Open  ;
 PIPE_1392350    	NODE_1335245    	NODE_1325445    	24.7987     	160.0000    	0.0200     	0.0000      	Open  ;
 PIPE_1392351    	NODE_1325445    	NODE_1315741    	0.8000      	160.0000    	0.0200     	0.0000      	Open  ;
 PIPE_1392357    	NODE_1318998    	NODE_1325446    	11.4035     	110.0000    	0.0200     	0.0000      	Open  ;
 PIPE_1392358    	NODE_1325446    	NODE_1325444    	27.3807     	110.0000    	0.0200     	0.0000      	Open  ;
 PIPE_1392365    	NODE_1316508    	NODE_1334211    	1.2918      	110.0000    	0.0200     	0.0000      	Open  ;
 PIPE_1392710    	NODE_1334710    	NODE_1316510    	6.2385      	110.0000    	0.0200     	0.0000      	Open  ;
 PIPE_1392711    	NODE_1316510    	NODE_1335237    	37.1004     	110.0000    	0.0200     	0.0000      	Open  ;
 PIPE_1393068    	NODE_1334216    	NODE_1331814    	15.3863     	110.0000    	0.0200     	0.0000      	Open  ;
 PIPE_1393069    	NODE_1331814    	NODE_1347157    	74.3268     	110.0000    	0.0200     	0.0000      	Open  ;
 PIPE_1393074    	NODE_1334735    	NODE_1331816    	17.1817     	110.0000    	0.0200     	0.0000      	Open  ;
 PIPE_1393075    	NODE_1331816    	NODE_1334216    	26.6702     	110.0000    	0.0200     	0.0000      	Open  ;
 PIPE_1393081    	NODE_1318493    	NODE_1331818    	10.6045     	110.0000    	0.0200     	0.0000      	Open  ;
 PIPE_1393082    	NODE_1331818    	NODE_1334736    	3.4432      	110.0000    	0.0200     	0.0000      	Open  ;
 PIPE_1393359    	NODE_1325451    	NODE_1334217    	15.7588     	110.0000    	0.0200     	0.0000      	Open  ;
 PIPE_1393372    	NODE_1325454    	NODE_1325453    	16.9414     	110.0000    	0.0200     	0.0000      	Open  ;
 PIPE_1393550    	NODE_1347269    	NODE_1331834    	15.0966     	160.0000    	0.0200     	0.0000      	Open  ;
 PIPE_1393921    	NODE_1325455    	NODE_1325454    	8.0863      	110.0000    	0.0200     	0.0000      	Open  ;
 PIPE_1393927    	NODE_1318080    	NODE_1325456    	34.3004     	110.0000    	0.0200     	0.0000      	Open  ;
 PIPE_1393928    	NODE_1325456    	NODE_1334711    	18.4758     	110.0000    	0.0200     	0.0000      	Open  ;
 PIPE_1393935    	NODE_1320041    	NODE_1318080    	19.5309     	110.0000    	0.0200     	0.0000      	Open  ;