[TITLE]
Converted from Epanet to Staci, case name: buk2.spr


[JUNCTIONS]
;ID              	Elev        	Demand      	Pattern         
 NODE_4730685    	160.5803    	0.000000    	                	;
 NODE_4730637    	158.2254    	0.000000    	                	;
 NODE_4728339    	176.6311    	0.001574    	                	;
 NODE_4728307    	174.2781    	0.044853    	                	;
 NODE_4729247    	176.8269    	0.005509    	                	;
 NODE_4729103    	176.3303    	0.005509    	                	;
 NODE_4729098    	177.1085    	0.000787    	                	;
 NODE_4729065    	170.0513    	0.008658    	                	;
 NODE_4728822    	176.6815    	0.008658    	                	;
 NODE_4728816    	177.0486    	0.004722    	                	;
 NODE_4728811    	176.5659    	0.016528    	                	;
 NODE_4728804    	177.0315    	0.003935    	                	;
 NODE_4728741    	176.8051    	0.000000    	                	;
 NODE_4728737    	176.8765    	0.003935    	                	;
 NODE_6921180    	179.9741    	0.073651    	                	;
 NODE_9930084    	165.4159    	0.000000    	                	;
 NODE_9930112    	164.9993    	0.000000    	                	;
 NODE_9930304    	165.1714    	0.000000    	                	;
 NODE_9930392    	166.1636    	0.000000    	                	;
 NODE_9930691    	177.4086    	0.000000    	                	;
 NODE_9930773    	176.2467    	0.000000    	                	;
 NODE_9930815    	177.6449    	0.000000    	                	;
 NODE_9931039    	172.9294    	0.000000    	                	;
 NODE_9931081    	174.6810    	0.000000    	                	;
 NODE_9931123    	175.9160    	0.000000    	                	;
 NODE_9931213    	175.3936    	0.000000    	                	;
 NODE_9440175    	179.3009    	0.000000    	                	;
 NODE_9101666    	177.5051    	0.001574    	                	;
 NODE_9101698    	177.1372    	0.001574    	                	;
 NODE_8168616    	173.8197    	0.000000    	                	;
 NODE_4730950    	164.9468    	0.000000    	                	;
 NODE_6452423    	165.4487    	0.000000    	                	;
 NODE_6452458    	165.8957    	0.000000    	                	;
 NODE_6452456    	165.3840    	0.000000    	                	;
 NODE_6452418    	166.5671    	0.000000    	                	;
 NODE_6452430    	164.8246    	0.000000    	                	;
 NODE_6452367    	165.6979    	0.000000    	                	;
 NODE_6452355    	166.8147    	0.014167    	                	;
 NODE_6452353    	166.8834    	0.000000    	                	;
 NODE_6452352    	167.0376    	0.007083    	                	;
 NODE_6452349    	166.5689    	0.005509    	                	;
 NODE_6452340    	166.9137    	0.000000    	                	;
 NODE_6452339    	167.1283    	0.000000    	                	;
 NODE_6452325    	165.8469    	0.000000    	                	;
 NODE_6452324    	166.7760    	0.001574    	                	;
 NODE_6452320    	166.5771    	0.005509    	                	;
 NODE_6452319    	166.9794    	0.001574    	                	;
 NODE_6452315    	166.2153    	0.007870    	                	;
 NODE_6452307    	165.3169    	0.000000    	                	;
 NODE_6452304    	165.5665    	0.007870    	                	;
 NODE_6452296    	165.9015    	0.003148    	                	;
 NODE_6452281    	166.8546    	0.000000    	                	;
 NODE_6452270    	165.0106    	0.000787    	                	;
 NODE_6452262    	164.9555    	0.003935    	                	;
 NODE_6452253    	165.4347    	0.007870    	                	;
 NODE_6452246    	164.2638    	0.000787    	                	;
 NODE_6452243    	165.5620    	0.005509    	                	;
 NODE_4728840    	176.0224    	0.003935    	                	;
 NODE_4728588    	176.1450    	0.014167    	                	;
 NODE_4728581    	173.1684    	0.009444    	                	;
 NODE_4728568    	172.8943    	0.013332    	                	;
 NODE_4728567    	172.3067    	0.000000    	                	;
 NODE_4728558    	173.7002    	0.045648    	                	;
 NODE_4728514    	173.3345    	0.002338    	                	;
 NODE_4728511    	176.8161    	0.000000    	                	;
 NODE_4728506    	172.2889    	0.000000    	                	;
 NODE_4728400    	178.3040    	0.003935    	                	;
 NODE_4728398    	178.9541    	0.004817    	                	;
 NODE_4728394    	172.5799    	0.000787    	                	;
 NODE_4728392    	172.2559    	0.006296    	                	;
 NODE_4728389    	178.7691    	0.021250    	                	;
 NODE_4728386    	172.9695    	0.000000    	                	;
 NODE_4728383    	172.8446    	0.006831    	                	;
 NODE_4729155    	175.3449    	0.011806    	                	;
 NODE_4728368    	172.5399    	0.001574    	                	;
 NODE_4729895    	171.7783    	0.000000    	                	;
 NODE_4728295    	175.0616    	0.000000    	                	;
 NODE_4728293    	175.9333    	0.000000    	                	;
 NODE_4729829    	177.9416    	0.000000    	                	;
 NODE_4729759    	178.7362    	0.000000    	                	;
 NODE_4728160    	175.0019    	0.000000    	                	;
 NODE_4729713    	173.6805    	0.000000    	                	;
 NODE_4728142    	176.9120    	0.000000    	                	;
 NODE_4729177    	173.4799    	0.000000    	                	;
 NODE_4729176    	171.7992    	0.000000    	                	;
 NODE_4729166    	176.7042    	0.000000    	                	;
 NODE_4729164    	168.0133    	0.000000    	                	;
 NODE_4729909    	172.0473    	0.000000    	                	;
 NODE_4729160    	172.8350    	0.000000    	                	;
 NODE_4729154    	170.7695    	0.000000    	                	;
 NODE_4729153    	175.9613    	0.000000    	                	;
 NODE_4729151    	175.6855    	0.000000    	                	;
 NODE_4729148    	173.0114    	0.000000    	                	;
 NODE_4729061    	172.1866    	0.000000    	                	;
 NODE_4729057    	171.1595    	0.000000    	                	;
 NODE_4729046    	171.2348    	0.000000    	                	;
 NODE_4729042    	171.1289    	0.000000    	                	;
 NODE_4728975    	175.9170    	0.005509    	                	;
 NODE_4728969    	175.6673    	0.000000    	                	;
 NODE_4728963    	176.0416    	0.003148    	                	;
 NODE_4728873    	171.8624    	0.000000    	                	;
 NODE_4728867    	173.8731    	0.003148    	                	;
 NODE_4728861    	171.9334    	0.000000    	                	;
 NODE_4728805    	176.4046    	0.000000    	                	;
 NODE_4728663    	175.8809    	0.001574    	                	;
 NODE_4728661    	175.8232    	0.000000    	                	;
 NODE_4728641    	175.1756    	0.000000    	                	;
 NODE_4728634    	175.5594    	0.010231    	                	;
 NODE_4728546    	175.7720    	0.015741    	                	;
 NODE_4728535    	174.3150    	0.004722    	                	;
 NODE_4728520    	171.5376    	0.000000    	                	;
 NODE_4728467    	170.7062    	0.000000    	                	;
 NODE_4728464    	171.1172    	0.000000    	                	;
 NODE_4729784    	172.8597    	4.098362    	                	;
 NODE_4728349    	176.0933    	0.009444    	                	;
 NODE_4729651    	175.4727    	0.036912    	                	;
 NODE_4728244    	169.9724    	0.000000    	                	;
 NODE_4728236    	173.9313    	0.002361    	                	;
 NODE_4728232    	174.9413    	0.000787    	                	;
 NODE_4728221    	175.5677    	0.001574    	                	;
 NODE_4728220    	175.3371    	0.010231    	                	;
 NODE_4728133    	175.1784    	0.010231    	                	;
 NODE_4728110    	173.9260    	0.000000    	                	;
 NODE_4729274    	171.7972    	0.002361    	                	;
 NODE_4729273    	171.5265    	0.002361    	                	;
 NODE_4729270    	171.8011    	0.007083    	                	;
 NODE_4729262    	176.8668    	0.003935    	                	;
 NODE_4729599    	177.2669    	0.004722    	                	;
 NODE_4729573    	176.1619    	0.001574    	                	;
 NODE_4729556    	175.3647    	0.003935    	                	;
 NODE_4729554    	174.6490    	0.003148    	                	;
 NODE_4729547    	170.7223    	0.015678    	                	;
 NODE_4729544    	170.1926    	0.012592    	                	;
 NODE_4729529    	170.6429    	0.008658    	                	;
 NODE_4729528    	176.2231    	0.002361    	                	;
 NODE_4729521    	176.3371    	0.000787    	                	;
 NODE_4729516    	176.4798    	0.006296    	                	;
 NODE_4729479    	172.7880    	0.006296    	                	;
 NODE_4729445    	172.0333    	0.003148    	                	;
 NODE_4729439    	177.7600    	0.008658    	                	;
 NODE_4729433    	178.4157    	0.018102    	                	;
 NODE_4729427    	177.8671    	0.010231    	                	;
 NODE_4729417    	178.9557    	0.009248    	                	;
 NODE_4729412    	176.9779    	0.000000    	                	;
 NODE_4729390    	178.7846    	0.014174    	                	;
 NODE_4729379    	174.9542    	0.010231    	                	;
 NODE_4729370    	174.4383    	0.009444    	                	;
 NODE_4729368    	175.6790    	0.008658    	                	;
 NODE_4729359    	178.9946    	0.004722    	                	;
 NODE_4729358    	179.1405    	0.013380    	                	;
 NODE_4729353    	179.3533    	0.002361    	                	;
 NODE_4729345    	179.4641    	0.002361    	                	;
 NODE_4729342    	179.0869    	0.009444    	                	;
 NODE_4729327    	173.3341    	0.000000    	                	;
 NODE_4729324    	173.4484    	0.005509    	                	;
 NODE_4729314    	176.2049    	0.006296    	                	;
 NODE_4729313    	175.8404    	0.006296    	                	;
 NODE_4729312    	175.7303    	0.007083    	                	;
 NODE_4729311    	175.9940    	0.030694    	                	;
 NODE_4729305    	176.8116    	0.006296    	                	;
 NODE_4729284    	178.4777    	0.025185    	                	;
 NODE_4729640    	175.6606    	0.022037    	                	;
 NODE_4729631    	175.4876    	0.001574    	                	;
 NODE_4729626    	174.5000    	0.014954    	                	;
 NODE_4729618    	175.0346    	0.040587    	                	;
 NODE_4729602    	174.1334    	0.000000    	                	;
 NODE_4728755    	176.3080    	0.013380    	                	;
 NODE_4728623    	179.3830    	0.021250    	                	;
 NODE_4728608    	172.8140    	0.005509    	                	;
 NODE_4728603    	173.1198    	0.002361    	                	;
 NODE_4728708    	173.1741    	0.010231    	                	;
 NODE_4728707    	173.2783    	0.007870    	                	;
 NODE_4728685    	176.0481    	0.000000    	                	;
 NODE_4728680    	175.8194    	0.000000    	                	;
 NODE_4729147    	175.9401    	0.000000    	                	;
 NODE_4729142    	173.8876    	0.006296    	                	;
 NODE_4729126    	177.7761    	0.006296    	                	;
 NODE_4729120    	172.1396    	0.022824    	                	;
 NODE_4729119    	173.3556    	0.006296    	                	;
 NODE_4729107    	172.5914    	0.002361    	                	;
 NODE_4728855    	172.7241    	0.007870    	                	;
 NODE_4728775    	174.4975    	0.005509    	                	;
 NODE_4728770    	175.5453    	0.000000    	                	;
 NODE_4728769    	174.6587    	0.006296    	                	;
 NODE_4728764    	173.4972    	0.000000    	                	;
 NODE_4728431    	176.0334    	0.000000    	                	;
 NODE_4728417    	174.0149    	0.002361    	                	;
 NODE_4728416    	174.6359    	0.000000    	                	;
 NODE_4728415    	172.9563    	0.024398    	                	;
 NODE_4728408    	179.8649    	0.010452    	                	;
 NODE_4728332    	175.4025    	0.000000    	                	;
 NODE_4728330    	174.0148    	0.000000    	                	;
 NODE_4728321    	178.4808    	0.018889    	                	;
 NODE_4728315    	175.0211    	0.000000    	                	;
 NODE_4729230    	178.6629    	0.000787    	                	;
 NODE_4729227    	178.3992    	0.005509    	                	;
 NODE_4729225    	178.3554    	0.013380    	                	;
 NODE_4729209    	178.5991    	0.008658    	                	;
 NODE_4729203    	179.4133    	0.000000    	                	;
 NODE_4729198    	175.4596    	0.001574    	                	;
 NODE_4729196    	174.9865    	0.003935    	                	;
 NODE_4729194    	175.1326    	0.003148    	                	;
 NODE_4729092    	177.6871    	0.001574    	                	;
 NODE_4729025    	170.7010    	0.013380    	                	;
 NODE_4729011    	173.5153    	0.012592    	                	;
 NODE_4728999    	177.0729    	0.003148    	                	;
 NODE_4728993    	172.4409    	0.000000    	                	;
 NODE_4728927    	174.4597    	0.000787    	                	;
 NODE_4728922    	174.5184    	0.000787    	                	;
 NODE_4728911    	172.8326    	0.006296    	                	;
 NODE_4728896    	172.9081    	0.006296    	                	;
 NODE_6452212    	166.0763    	0.002361    	                	;
 NODE_6452202    	165.6452    	0.016709    	                	;
 NODE_6452186    	165.0757    	0.001574    	                	;
 NODE_6452169    	165.4676    	0.003644    	                	;
 NODE_6452166    	165.0939    	0.010231    	                	;
 NODE_6452161    	166.2619    	0.000000    	                	;
 NODE_6452151    	164.9123    	0.005509    	                	;
 NODE_6452143    	166.0259    	0.007083    	                	;
 NODE_6452141    	165.8804    	0.002361    	                	;
 NODE_6452134    	165.1151    	0.000000    	                	;
 NODE_6452130    	165.3242    	0.001574    	                	;
 NODE_6452114    	164.6663    	0.000000    	                	;
 NODE_6452103    	165.7346    	0.003935    	                	;
 NODE_6452089    	165.9658    	0.014954    	                	;
 NODE_6452081    	166.8804    	0.003148    	                	;
 NODE_6452075    	166.8868    	0.003935    	                	;
 NODE_6452055    	164.9191    	0.007870    	                	;
 NODE_6452054    	164.9091    	0.007083    	                	;
 NODE_4730241    	164.5050    	0.000000    	                	;
 NODE_4730234    	164.5536    	0.000000    	                	;
 NODE_4730562    	159.0596    	0.010231    	                	;
 NODE_4730636    	157.7467    	0.003148    	                	;
 NODE_4730644    	159.5787    	0.006296    	                	;
 NODE_4730648    	160.5139    	0.000000    	                	;
 NODE_4730653    	160.9072    	0.000787    	                	;
 NODE_4730669    	160.8574    	0.007870    	                	;
 NODE_4730675    	160.4888    	0.000000    	                	;
 NODE_4730678    	160.4677    	0.000000    	                	;
 NODE_4730696    	160.7219    	0.000000    	                	;
 NODE_4730702    	160.5151    	0.007083    	                	;
 NODE_4730707    	160.4050    	0.000000    	                	;
 NODE_4730937    	168.9375    	0.004722    	                	;
 NODE_4730934    	166.0995    	0.000000    	                	;
 NODE_4730930    	166.3448    	0.000000    	                	;
 NODE_4730928    	167.2062    	0.000000    	                	;
 NODE_4730921    	168.8024    	0.010231    	                	;
 NODE_4730919    	167.1779    	0.000000    	                	;
 NODE_4730913    	165.9367    	0.004722    	                	;
 NODE_4730911    	166.5622    	0.000000    	                	;
 NODE_4730904    	166.5830    	0.006296    	                	;
 NODE_4730897    	166.4262    	0.000000    	                	;
 NODE_4730972    	165.9747    	0.010231    	                	;
 NODE_4730886    	166.1200    	0.000787    	                	;
 NODE_4730881    	166.3087    	0.003148    	                	;
 NODE_4730878    	164.4672    	0.001574    	                	;
 NODE_4730875    	165.6843    	0.000787    	                	;
 NODE_4730872    	164.4873    	0.000000    	                	;
 NODE_4730869    	164.2308    	0.000000    	                	;
 NODE_4730338    	167.4807    	0.005509    	                	;
 NODE_4730329    	164.8352    	0.006296    	                	;
 NODE_4730307    	164.7572    	0.000000    	                	;
 NODE_4730305    	164.4852    	0.000787    	                	;
 NODE_4730303    	164.7761    	0.000000    	                	;
 NODE_4730296    	164.4169    	0.007870    	                	;
 NODE_4730294    	169.9131    	0.001574    	                	;
 NODE_4730197    	168.5769    	0.004557    	                	;
 NODE_4730190    	169.8548    	0.000000    	                	;
 NODE_4730159    	167.4265    	0.000000    	                	;
 NODE_4730357    	166.8554    	0.000000    	                	;
 NODE_4730353    	168.7902    	0.003148    	                	;
 NODE_4730327    	167.7212    	0.007083    	                	;
 NODE_4730312    	170.5800    	0.000000    	                	;
 NODE_4730310    	165.3495    	0.000000    	                	;
 NODE_4730282    	167.4971    	0.001574    	                	;
 NODE_6452288    	166.6607    	0.000000    	                	;
 NODE_6452224    	166.0731    	0.005509    	                	;
 NODE_9929964    	177.8674    	0.000000    	                	;
 NODE_4730657    	160.7317    	0.000000    	                	;
 NODE_4728381    	178.1957    	0.003935    	                	;
 NODE_4728369    	173.3026    	0.194044    	                	;
 NODE_4729539    	170.4252    	0.010231    	                	;
 NODE_4729537    	170.0651    	0.007083    	                	;
 NODE_4728323    	179.3072    	0.022777    	                	;
 NODE_4728322    	176.9410    	0.000000    	                	;
 NODE_4729488    	170.7549    	0.007083    	                	;
 NODE_4729471    	175.0159    	0.031481    	                	;
 NODE_4729267    	176.9035    	0.003148    	                	;
 NODE_4729255    	176.6180    	0.007870    	                	;
 NODE_4729003    	176.3688    	0.001574    	                	;
 NODE_4729001    	176.8323    	0.018889    	                	;
 NODE_4728987    	175.6763    	0.000000    	                	;
 NODE_4728810    	176.4948    	0.006296    	                	;
 NODE_4728774    	178.6513    	0.050693    	                	;
 NODE_4728747    	176.7573    	0.055880    	                	;
 NODE_4728743    	175.9830    	0.000000    	                	;
 NODE_4728739    	176.7965    	0.007870    	                	;
 NODE_4728721    	179.0992    	0.021888    	                	;
 NODE_9930098    	165.5646    	0.000000    	                	;
 NODE_9930350    	166.8509    	0.000000    	                	;
 NODE_9930378    	166.0064    	0.000000    	                	;
 NODE_9930711    	172.4921    	0.000000    	                	;
 NODE_9930725    	173.7704    	0.000000    	                	;
 NODE_9931011    	172.8141    	0.000000    	                	;
 NODE_9931193    	174.0827    	0.000000    	                	;
 NODE_9931227    	175.1295    	0.000000    	                	;
 NODE_9931241    	175.1352    	0.000000    	                	;
 NODE_9440133    	178.8796    	0.000000    	                	;
 NODE_9440231    	172.3442    	0.000000    	                	;
 NODE_9440245    	171.3522    	0.000000    	                	;
 NODE_9440315    	172.6743    	0.000000    	                	;
 NODE_9440413    	175.2044    	0.000000    	                	;
 NODE_9101730    	177.6391    	0.008658    	                	;
 NODE_8168111    	162.2032    	0.000000    	                	;
 NODE_4730862    	164.9434    	0.000000    	                	;
 NODE_6452417    	166.4825    	0.000000    	                	;
 NODE_6452415    	165.7223    	0.000000    	                	;
 NODE_6452411    	166.8009    	0.000000    	                	;
 NODE_6452402    	164.5751    	0.000000    	                	;
 NODE_6452388    	165.2628    	0.000000    	                	;
 NODE_6452383    	165.3245    	0.059224    	                	;
 NODE_6452374    	165.8105    	0.008658    	                	;
 NODE_6452347    	166.7812    	0.000000    	                	;
 NODE_6452329    	165.9853    	0.006296    	                	;
 NODE_6452327    	166.6252    	0.007083    	                	;
 NODE_6452323    	166.5821    	0.003148    	                	;
 NODE_6452293    	166.6662    	0.024398    	                	;
 NODE_6452269    	164.8098    	0.000000    	                	;
 NODE_6452235    	165.2482    	0.000000    	                	;
 NODE_4728597    	176.2626    	0.013380    	                	;
 NODE_4728580    	173.1240    	0.001574    	                	;
 NODE_4728573    	174.1386    	0.000000    	                	;
 NODE_4728570    	173.3263    	0.022037    	                	;
 NODE_4728561    	174.4070    	0.007870    	                	;
 NODE_4728560    	172.9510    	0.008658    	                	;
 NODE_4728557    	172.9780    	0.011806    	                	;
 NODE_4728504    	172.0364    	0.003148    	                	;
 NODE_4728499    	173.9263    	0.002361    	                	;
 NODE_4728491    	173.0510    	0.000787    	                	;
 NODE_4728483    	172.7641    	0.000260    	                	;
 NODE_4728480    	178.8317    	0.008500    	                	;
 NODE_4728399    	178.8554    	0.004722    	                	;
 NODE_4728372    	170.4848    	0.013380    	                	;
 NODE_4728378    	172.7801    	0.002361    	                	;
 NODE_4728373    	173.5176    	0.002361    	                	;
 NODE_4728364    	178.7676    	0.035535    	                	;
 NODE_4728833    	171.9717    	0.085748    	                	;
 NODE_4728283    	177.3302    	0.000000    	                	;
 NODE_4728278    	174.4545    	0.000000    	                	;
 NODE_4728271    	178.7546    	0.000000    	                	;
 NODE_4728269    	178.3150    	0.000000    	                	;
 NODE_4728267    	174.6379    	0.000000    	                	;
 NODE_4729692    	176.2501    	0.000000    	                	;
 NODE_4728257    	175.8488    	0.000000    	                	;
 NODE_4728256    	177.3704    	0.000000    	                	;
 NODE_4729833    	176.7129    	0.000000    	                	;
 NODE_4728146    	173.6045    	0.000000    	                	;
 NODE_4728141    	176.6387    	0.000000    	                	;
 NODE_4729168    	178.4252    	0.000000    	                	;
 NODE_4729167    	176.9835    	0.000000    	                	;
 NODE_4729049    	172.0808    	0.007870    	                	;
 NODE_4729045    	171.1318    	0.000000    	                	;
 NODE_4729032    	172.3383    	0.000000    	                	;
 NODE_4728972    	176.0497    	0.002361    	                	;
 NODE_4728970    	175.8642    	0.011019    	                	;
 NODE_4728961    	176.0161    	0.011019    	                	;
 NODE_4728885    	176.0088    	0.005509    	                	;
 NODE_4728882    	176.4619    	0.010231    	                	;
 NODE_4728872    	171.1265    	0.000000    	                	;
 NODE_4728871    	171.5052    	0.000000    	                	;
 NODE_4728835    	172.0527    	0.003935    	                	;
 NODE_4728824    	176.4086    	0.007870    	                	;
 NODE_4728660    	175.8143    	0.000000    	                	;
 NODE_4728651    	175.9853    	0.000000    	                	;
 NODE_4728643    	175.4674    	0.002361    	                	;
 NODE_4728538    	172.8160    	0.011019    	                	;
 NODE_4728530    	173.2874    	0.007083    	                	;
 NODE_4728529    	173.2010    	0.014954    	                	;
 NODE_4728526    	172.8809    	0.000000    	                	;
 NODE_4728471    	170.7064    	0.000000    	                	;
 NODE_4729710    	172.1751    	0.000000    	                	;
 NODE_4728461    	171.0411    	0.027790    	                	;
 NODE_4728458    	171.0012    	0.000000    	                	;
 NODE_4728448    	172.0550    	0.000000    	                	;
 NODE_4729885    	172.8855    	0.000787    	                	;
 NODE_4728355    	178.7932    	0.106832    	                	;
 NODE_4729653    	175.1761    	0.012592    	                	;
 NODE_4728242    	173.3627    	0.000000    	                	;
 NODE_4728225    	175.6199    	0.009444    	                	;
 NODE_4728124    	174.3937    	0.000000    	                	;
 NODE_4728123    	174.6270    	0.003148    	                	;
 NODE_4728121    	172.3104    	0.000787    	                	;
 NODE_4728119    	172.6806    	0.011019    	                	;
 NODE_4729264    	177.0144    	0.000787    	                	;
 NODE_4729263    	176.9249    	0.004722    	                	;
 NODE_4729256    	176.9801    	0.003148    	                	;
 NODE_4729250    	176.8503    	0.011019    	                	;
 NODE_4729585    	173.6024    	0.004722    	                	;
 NODE_4729575    	176.1172    	0.004722    	                	;
 NODE_4729574    	176.1283    	0.006296    	                	;
 NODE_4729564    	175.6713    	0.002361    	                	;
 NODE_4729560    	174.5132    	0.004722    	                	;
 NODE_4729551    	174.5008    	0.023761    	                	;
 NODE_4729549    	170.2573    	0.011806    	                	;
 NODE_4729527    	176.1092    	0.013380    	                	;
 NODE_4729525    	176.2055    	0.003935    	                	;
 NODE_4729509    	176.4841    	0.023611    	                	;
 NODE_4729505    	176.3440    	0.000000    	                	;
 NODE_4729504    	176.5800    	0.005509    	                	;
 NODE_4729500    	176.6452    	0.001574    	                	;
 NODE_4729490    	170.9038    	0.011019    	                	;
 NODE_4729487    	170.8354    	0.018102    	                	;
 NODE_4729480    	172.4941    	0.007083    	                	;
 NODE_4729462    	172.1367    	0.006296    	                	;
 NODE_4729448    	173.5423    	0.001574    	                	;
 NODE_4729436    	178.3583    	0.002361    	                	;
 NODE_4729430    	177.3556    	0.000000    	                	;
 NODE_4729428    	177.5059    	0.003935    	                	;
 NODE_4729395    	179.2216    	0.003148    	                	;
 NODE_4729378    	173.8643    	0.002361    	                	;
 NODE_4729374    	174.2683    	0.000000    	                	;
 NODE_4729360    	178.8397    	0.007083    	                	;
 NODE_4729357    	179.4553    	0.011019    	                	;
 NODE_4729351    	179.3102    	0.006296    	                	;
 NODE_4729347    	179.2255    	0.003935    	                	;
 NODE_4729343    	179.4773    	0.009444    	                	;
 NODE_4729335    	173.3101    	0.001401    	                	;
 NODE_4729326    	173.5576    	0.000787    	                	;
 NODE_4729325    	173.4375    	0.000000    	                	;
 NODE_4729310    	176.5140    	0.012592    	                	;
 NODE_4729307    	177.0723    	0.010231    	                	;
 NODE_4729297    	174.8451    	0.000787    	                	;
 NODE_4729295    	176.8171    	0.024398    	                	;
 NODE_4729283    	178.4317    	0.006296    	                	;
 NODE_4729278    	179.9762    	0.000000    	                	;
 NODE_4729639    	175.2736    	0.007870    	                	;
 NODE_4729637    	175.3980    	0.015741    	                	;
 NODE_4729632    	175.5212    	0.006296    	                	;
 NODE_4729617    	176.9119    	0.020337    	                	;
 NODE_4728754    	176.0487    	0.023611    	                	;
 NODE_4728753    	175.9978    	0.004722    	                	;
 NODE_4728748    	176.8518    	0.009444    	                	;
 NODE_4728722    	179.4484    	0.015678    	                	;
 NODE_4728622    	179.4027    	0.004722    	                	;
 NODE_4728620    	179.8880    	0.035031    	                	;
 NODE_4728611    	178.9124    	0.006296    	                	;
 NODE_4728610    	173.2876    	0.002361    	                	;
 NODE_4728605    	172.9340    	0.007870    	                	;
 NODE_4728600    	173.0525    	0.000000    	                	;
 NODE_4728713    	174.0349    	0.007083    	                	;
 NODE_4728712    	174.0735    	0.023611    	                	;
 NODE_4728711    	174.0394    	0.007083    	                	;
 NODE_4728710    	173.9920    	0.025185    	                	;
 NODE_4728701    	177.0676    	0.010231    	                	;
 NODE_4728695    	175.2734    	0.012592    	                	;
 NODE_4728690    	175.6194    	0.008658    	                	;
 NODE_4729141    	175.6619    	0.000000    	                	;
 NODE_4729132    	176.8397    	0.003148    	                	;
 NODE_4728852    	174.5821    	0.000000    	                	;
 NODE_4728851    	174.7298    	0.018889    	                	;
 NODE_4728773    	175.3730    	0.014954    	                	;
 NODE_4728771    	175.5157    	0.003148    	                	;
 NODE_4728437    	178.3934    	0.009444    	                	;
 NODE_4728436    	173.8714    	0.000787    	                	;
 NODE_4728427    	175.8649    	0.011019    	                	;
 NODE_4728334    	173.7389    	0.001574    	                	;
 NODE_4728305    	173.9861    	0.003935    	                	;
 NODE_4728057    	178.2213    	0.010231    	                	;
 NODE_4729217    	179.3574    	0.004722    	                	;
 NODE_4729074    	175.1212    	0.004722    	                	;
 NODE_4729073    	170.8001    	0.001574    	                	;
 NODE_4729071    	170.9975    	0.003148    	                	;
 NODE_4729069    	176.4096    	0.005509    	                	;
 NODE_4729068    	176.4248    	0.024398    	                	;