[TITLE]
Converted from Epanet to Staci, case name: csaford.spr


[JUNCTIONS]
;ID              	Elev        	Demand      	Pattern         
 NODE_1320138    	146.3857    	0.000000    	                	;
 NODE_1327022    	144.5841    	0.000000    	                	;
 NODE_1330353    	147.5814    	0.000000    	                	;
 NODE_1330367    	143.7329    	0.000000    	                	;
 NODE_1327009    	142.2088    	0.000000    	                	;
 NODE_1316519    	151.2449    	0.000000    	                	;
 NODE_1330309    	144.4055    	0.000000    	                	;
 NODE_1313982    	145.7044    	0.000000    	                	;
 NODE_1326931    	144.3273    	0.000000    	                	;
 NODE_1320568    	143.9951    	0.000000    	                	;
 NODE_1314415    	143.0935    	0.000000    	                	;
 NODE_11003482   	144.3113    	0.000000    	                	;
 NODE_1330347    	147.0500    	0.000000    	                	;
 NODE_1320134    	145.4326    	0.000000    	                	;
 NODE_1327018    	144.3335    	0.012500    	                	;
 NODE_1330310    	145.3671    	0.000000    	                	;
 NODE_1326927    	146.6666    	0.000000    	                	;
 NODE_1330812    	144.3079    	0.000833    	                	;
 NODE_1327008    	142.2154    	0.000000    	                	;
 NODE_1319153    	145.4970    	0.008750    	                	;
 NODE_1313768    	143.4044    	0.000000    	                	;
 NODE_1314001    	143.1693    	0.000000    	                	;
 NODE_1322204    	146.7217    	0.000000    	                	;
 NODE_1331160    	148.7039    	0.000000    	                	;
 NODE_10858131   	145.2511    	0.000000    	                	;
 NODE_1313986    	146.1065    	0.000000    	                	;
 NODE_1330335    	144.5761    	0.000000    	                	;
 NODE_1329696    	147.7133    	0.000000    	                	;
 NODE_1325480    	149.8089    	0.000000    	                	;
 NODE_1325492    	148.7457    	0.000000    	                	;
 NODE_1329859    	147.2278    	0.000000    	                	;
 NODE_1322331    	144.6769    	0.000000    	                	;
 NODE_1313769    	144.2468    	0.000000    	                	;
 NODE_1330331    	145.5769    	0.000000    	                	;
 NODE_1330365    	143.8911    	0.000000    	                	;
 NODE_1314000    	143.1202    	0.000417    	                	;
 NODE_1327763    	141.9611    	0.000000    	                	;
 NODE_1329852    	147.6122    	0.000000    	                	;
 NODE_1329856    	147.3091    	0.000000    	                	;
 NODE_1321780    	145.5961    	0.000000    	                	;
 NODE_1330341    	144.6110    	0.000000    	                	;
 NODE_1335969    	150.0577    	0.000000    	                	;
 NODE_1325489    	148.8002    	0.000000    	                	;
 NODE_1316523    	148.7587    	0.000000    	                	;
 NODE_1313959    	144.3971    	0.000000    	                	;
 NODE_1313973    	145.4320    	0.000000    	                	;
 NODE_1326932    	143.0347    	0.000000    	                	;
 NODE_1313997    	144.6045    	0.000000    	                	;
 NODE_1322329    	146.0785    	0.000000    	                	;
 NODE_1326930    	144.8528    	0.000000    	                	;
 NODE_1330350    	147.2025    	0.000000    	                	;
 NODE_1330359    	147.3861    	0.000000    	                	;
 NODE_1319157    	141.9842    	0.000000    	                	;
 NODE_1313991    	145.0366    	0.000000    	                	;
 NODE_1316521    	148.8755    	0.000000    	                	;
 NODE_1313967    	145.4781    	0.000000    	                	;
 NODE_1313985    	145.8848    	0.000000    	                	;
 NODE_1326934    	144.5436    	0.000000    	                	;
 NODE_1314414    	144.3422    	0.000000    	                	;
 NODE_1319247    	144.5117    	0.000000    	                	;
 NODE_1319898    	146.3215    	0.000000    	                	;
 NODE_1314019    	146.0027    	0.000000    	                	;
 NODE_1337291    	144.2526    	0.000000    	                	;
 NODE_1330352    	147.5750    	0.000000    	                	;
 NODE_1316525    	148.5519    	0.000833    	                	;
 NODE_1325477    	150.4044    	0.000000    	                	;
 NODE_1326924    	146.0408    	0.000000    	                	;
 NODE_1330308    	147.3765    	0.000000    	                	;
 NODE_1329695    	145.4037    	0.000000    	                	;
 NODE_1330346    	144.5930    	0.000000    	                	;
 NODE_1329862    	147.2697    	0.000000    	                	;
 NODE_1313995    	144.7954    	0.000000    	                	;
 NODE_1330356    	147.8090    	0.000000    	                	;
 NODE_1314021    	144.7915    	0.000000    	                	;
 NODE_1330337    	144.7537    	0.000000    	                	;
 NODE_1325485    	148.8349    	0.000000    	                	;
 NODE_1329860    	147.2455    	0.000000    	                	;
 NODE_1330338    	144.8307    	0.000000    	                	;
 NODE_1322334    	145.2357    	0.000000    	                	;
 NODE_1331485    	142.0496    	0.000000    	                	;
 NODE_1327016    	147.5492    	0.000000    	                	;
 NODE_1325481    	149.4397    	0.000000    	                	;
 NODE_1319152    	146.3846    	0.000000    	                	;
 NODE_1313962    	145.5102    	0.000000    	                	;
 NODE_1313963    	145.5691    	0.000000    	                	;
 NODE_1338368    	145.1817    	0.000000    	                	;
 NODE_1314004    	144.7096    	0.000000    	                	;
 NODE_1314011    	144.8491    	0.000000    	                	;
 NODE_1326957    	144.9813    	0.000833    	                	;
 NODE_1337301    	145.4742    	0.000000    	                	;
 NODE_1314005    	144.6285    	0.000000    	                	;
 NODE_1329865    	146.1647    	0.000000    	                	;
 NODE_1327560    	144.7281    	0.000000    	                	;
 NODE_1314408    	145.3593    	0.000000    	                	;
 NODE_1313972    	145.3134    	0.000000    	                	;
 NODE_1314016    	145.6264    	0.000000    	                	;
 NODE_1314007    	144.5013    	0.000000    	                	;
 NODE_1327563    	144.0947    	0.000000    	                	;
 NODE_1313971    	145.1047    	0.000417    	                	;
 NODE_1325486    	148.7309    	0.000000    	                	;
 NODE_1313767    	144.8146    	0.000000    	                	;
 NODE_1325473    	151.2916    	0.000000    	                	;
 NODE_1322335    	147.2073    	0.000000    	                	;
 NODE_1326926    	145.7291    	0.003333    	                	;
 NODE_1319151    	148.1718    	0.000000    	                	;
 NODE_1313977    	146.0210    	0.000000    	                	;
 NODE_1330332    	145.8801    	0.000000    	                	;
 NODE_1330355    	147.8087    	0.000000    	                	;
 NODE_1329854    	147.5073    	0.000417    	                	;
 NODE_1313980    	145.9709    	0.000000    	                	;
 NODE_1330362    	144.8530    	0.004583    	                	;
 NODE_1319699    	144.1412    	0.000000    	                	;
 NODE_1329864    	146.6008    	0.000000    	                	;
 NODE_1327765    	144.1208    	0.000000    	                	;
 NODE_1325475    	151.6040    	0.000000    	                	;
 NODE_1330315    	145.5632    	0.000000    	                	;
 NODE_1320260    	144.6720    	0.000000    	                	;
 NODE_1314412    	144.4115    	0.000417    	                	;
 NODE_1313961    	145.1607    	0.000000    	                	;
 NODE_1314017    	145.4921    	0.000000    	                	;
 NODE_1322337    	147.7970    	0.000000    	                	;
 NODE_1327002    	143.3677    	0.000000    	                	;
 NODE_1327010    	142.0015    	0.000000    	                	;
 NODE_1329858    	147.1847    	0.000000    	                	;
 NODE_1325474    	152.2761    	0.000000    	                	;
 NODE_1327007    	142.1799    	0.000000    	                	;
 NODE_1321779    	146.9841    	0.000000    	                	;
 NODE_1322465    	144.1611    	0.000000    	                	;
 NODE_1327021    	146.3104    	0.000000    	                	;
 NODE_1314413    	144.2788    	0.000000    	                	;
 NODE_1327006    	142.4350    	0.000000    	                	;
 NODE_1326939    	146.8849    	0.000000    	                	;
 NODE_1313766    	144.2443    	0.000000    	                	;
 NODE_1330785    	147.5242    	0.000000    	                	;
 NODE_1338369    	144.3121    	0.000000    	                	;
 NODE_1316526    	149.7670    	0.000417    	                	;
 NODE_1325483    	149.0841    	0.000000    	                	;
 NODE_1316524    	148.6096    	0.000000    	                	;
 NODE_1314014    	145.3874    	0.000000    	                	;
 NODE_1336714    	144.8740    	0.000000    	                	;
 NODE_1330989    	145.1336    	0.000000    	                	;
 NODE_1325484    	148.9685    	0.000000    	                	;
 NODE_1313970    	145.0734    	0.000000    	                	;
 NODE_1329868    	145.2526    	0.000000    	                	;
 NODE_1325494    	151.4305    	0.000000    	                	;
 NODE_1327015    	144.9201    	0.000000    	                	;
 NODE_1327562    	143.9515    	0.000000    	                	;
 NODE_1314407    	144.2643    	0.000000    	                	;
 NODE_1330856    	148.0522    	0.000417    	                	;
 NODE_1331489    	147.4239    	0.000000    	                	;
 NODE_1322330    	145.4081    	0.000000    	                	;
 NODE_1330354    	147.7990    	0.000000    	                	;
 NODE_1330360    	147.2910    	0.000000    	                	;
 NODE_1322819    	143.5958    	0.000000    	                	;
 NODE_1336717    	142.4836    	0.000000    	                	;
 NODE_1329693    	145.3541    	0.000000    	                	;
 NODE_1313984    	145.7195    	0.000000    	                	;
 NODE_1326929    	144.7826    	0.000000    	                	;
 NODE_1313998    	144.3976    	0.000000    	                	;
 NODE_1314012    	145.1773    	0.000000    	                	;
 NODE_1338372    	144.2798    	0.000000    	                	;
 NODE_1319155    	147.1701    	0.000000    	                	;
 NODE_1327005    	142.4452    	0.000000    	                	;
 NODE_1330334    	144.8982    	0.000000    	                	;
 NODE_1329861    	147.3727    	0.000000    	                	;
 NODE_1330351    	147.5318    	0.000000    	                	;
 NODE_1325487    	148.6807    	0.000000    	                	;
 NODE_1313964    	145.5786    	0.000000    	                	;
 NODE_1330357    	147.5493    	0.000000    	                	;
 NODE_1326925    	145.9463    	0.000000    	                	;
 NODE_1313987    	146.8949    	0.000000    	                	;
 NODE_1318204    	144.6219    	0.000000    	                	;
 NODE_1326935    	144.4062    	0.000000    	                	;
 NODE_1331486    	143.5720    	0.000000    	                	;
 NODE_1313992    	144.8532    	0.000000    	                	;
 NODE_1330750    	145.5111    	0.000000    	                	;
 NODE_1313990    	145.2979    	0.000000    	                	;
 NODE_1321777    	147.1729    	0.000000    	                	;
 NODE_1330370    	143.0948    	0.000000    	                	;
 NODE_1325479    	149.8955    	0.000000    	                	;
 NODE_1338965    	145.2422    	0.000000    	                	;
 NODE_1313974    	145.4676    	0.000000    	                	;
 NODE_1327004    	142.6824    	0.000000    	                	;
 NODE_1327768    	145.2478    	0.000000    	                	;
 NODE_1326938    	145.5251    	0.000000    	                	;
 NODE_1330358    	147.4373    	0.000000    	                	;
 NODE_1313958    	144.2401    	0.000000    	                	;
 NODE_1319150    	142.3124    	0.000000    	                	;
 NODE_1338513    	143.1719    	0.000000    	                	;
 NODE_1313976    	145.7968    	0.003750    	                	;
 NODE_1313993    	144.9052    	0.000000    	                	;
 NODE_1316522    	148.6731    	0.000000    	                	;
 NODE_1313989    	145.3145    	0.000833    	                	;
 NODE_1313999    	143.1680    	0.000000    	                	;
 NODE_5813428    	152.4151    	0.000000    	                	;
 NODE_5813418    	151.2919    	0.062500    	                	;
 NODE_1327024    	144.7142    	0.000000    	                	;
 NODE_1322328    	145.3300    	0.000000    	                	;
 NODE_1338032    	144.2491    	0.000000    	                	;
 NODE_1330312    	145.4332    	0.000000    	                	;
 NODE_1313975    	145.5847    	0.000000    	                	;
 NODE_1314015    	145.5708    	0.000000    	                	;
 NODE_1313994    	144.8839    	0.000000    	                	;
 NODE_1327234    	147.5030    	0.000000    	                	;
 NODE_1313983    	145.5069    	0.000000    	                	;
 NODE_1326936    	145.1594    	0.000000    	                	;
 NODE_1322817    	144.3011    	0.000000    	                	;
 NODE_1330368    	143.6997    	0.000000    	                	;
 NODE_1338004    	142.9588    	0.000000    	                	;
 NODE_1325495    	150.3983    	0.000000    	                	;
 NODE_1314410    	145.0353    	0.000000    	                	;
 NODE_1320140    	148.1510    	0.000000    	                	;
 NODE_1337298    	142.6839    	0.000000    	                	;
 NODE_1330336    	144.4798    	0.000000    	                	;
 NODE_1327023    	142.5072    	0.000000    	                	;
 NODE_1327001    	143.2274    	0.000000    	                	;
 NODE_1330311    	145.5275    	0.000000    	                	;
 NODE_1337667    	145.5456    	0.000000    	                	;
 NODE_1330339    	144.5159    	0.000000    	                	;
 NODE_1322336    	147.5330    	0.000000    	                	;
 NODE_1314006    	144.6153    	0.000000    	                	;
 NODE_1314022    	145.7058    	0.000000    	                	;
 NODE_1329863    	145.3374    	0.000000    	                	;
 NODE_1322815    	147.7059    	0.000000    	                	;
 NODE_1319156    	142.5405    	0.000000    	                	;
 NODE_1330314    	145.2292    	0.000000    	                	;
 NODE_1330348    	147.2066    	0.000000    	                	;
 NODE_1329851    	147.8490    	0.000000    	                	;
 NODE_1337217    	144.3990    	0.000000    	                	;
 NODE_1327766    	145.4591    	0.000000    	                	;
 NODE_1326940    	144.9023    	0.000000    	                	;
 NODE_1313979    	146.0352    	0.000000    	                	;
 NODE_1325476    	150.9038    	0.000000    	                	;
 NODE_1327233    	147.1954    	0.000000    	                	;
 NODE_1325491    	149.6234    	0.000000    	                	;
 NODE_1329855    	147.3242    	0.000000    	                	;
 NODE_1320298    	144.2829    	0.000000    	                	;
 NODE_1327561    	144.3137    	0.000000    	                	;
 NODE_1319900    	143.8811    	0.000000    	                	;
 NODE_1313965    	145.5554    	0.002500    	                	;
 NODE_1314010    	144.6120    	0.000000    	                	;
 NODE_1335953    	144.4947    	0.000000    	                	;
 NODE_1329857    	147.1935    	0.000000    	                	;
 NODE_1327000    	145.2223    	0.000000    	                	;
 NODE_1325490    	148.7658    	0.000000    	                	;
 NODE_1313988    	146.9581    	0.000000    	                	;
 NODE_1327012    	147.8427    	0.000000    	                	;
 NODE_1327003    	142.7901    	0.000000    	                	;
 NODE_1314002    	143.9172    	0.000000    	                	;
 NODE_1316520    	149.2135    	0.000000    	                	;
 NODE_1313996    	144.8078    	0.000000    	                	;
 NODE_1314008    	144.4870    	0.000000    	                	;
 NODE_1330364    	143.8789    	0.000000    	                	;
 NODE_1330344    	144.3985    	0.000000    	                	;
 NODE_1322820    	143.0369    	0.000000    	                	;
 NODE_1327020    	141.8913    	0.000000    	                	;
 NODE_1321776    	147.8008    	0.000000    	                	;
 NODE_1330184    	145.2841    	0.000000    	                	;
 NODE_1330366    	143.8498    	0.000000    	                	;
 NODE_1313978    	146.0289    	0.000000    	                	;
 NODE_1327764    	142.3516    	0.000000    	                	;
 NODE_1329698    	142.4350    	0.000000    	                	;
 NODE_1328045    	148.5461    	0.000000    	                	;
 NODE_1313981    	145.9400    	0.000000    	                	;
 NODE_1330369    	143.0911    	0.000000    	                	;
 NODE_1319147    	143.3805    	0.000000    	                	;
 NODE_1322332    	144.5303    	0.000000    	                	;
 NODE_1330343    	145.7586    	0.000000    	                	;
 NODE_1327767    	147.6409    	0.000000    	                	;
 NODE_1329853    	147.5694    	0.000000    	                	;
 NODE_1319148    	142.4359    	0.000000    	                	;
 NODE_1313968    	145.6383    	0.064583    	                	;
 NODE_1313957    	144.2380    	0.000000    	                	;
 NODE_1330313    	145.0520    	0.000000    	                	;
 NODE_1327013    	147.5602    	0.000000    	                	;
 NODE_1322816    	143.8602    	0.000000    	                	;
 NODE_1331222    	145.0209    	0.000000    	                	;
 NODE_1320294    	147.2783    	0.000000    	                	;
 NODE_1329866    	145.8250    	0.000000    	                	;
 NODE_1322333    	146.2713    	0.000000    	                	;
 NODE_1329692    	145.1675    	0.000000    	                	;
 NODE_1325488    	148.7856    	0.000000    	                	;
 NODE_1325493    	148.4265    	0.000000    	                	;
 NODE_1313966    	145.5030    	0.001667    	                	;
 NODE_1313969    	145.0132    	0.000000    	                	;
 NODE_1326933    	144.3049    	0.000000    	                	;
 NODE_1326937    	145.5440    	0.000000    	                	;
 NODE_1329850    	148.0403    	0.000000    	                	;
 NODE_1330340    	144.4974    	0.000000    	                	;
 NODE_1330361    	144.0617    	0.000000    	                	;
 NODE_1319149    	142.1780    	0.000000    	                	;
 NODE_1322818    	143.9180    	0.000000    	                	;
 NODE_1325482    	149.0807    	0.000000    	                	;
 NODE_1337290    	144.1484    	0.000000    	                	;
 NODE_1330333    	146.4326    	0.000000    	                	;
 NODE_1330349    	147.2343    	0.000000    	                	;
 NODE_1330371    	143.1998    	0.000000    	                	;
 NODE_1320565    	145.6825    	0.000000    	                	;
 NODE_1314411    	145.5956    	0.000000    	                	;
 NODE_1329699    	147.9367    	0.000000    	                	;
 NODE_1327019    	142.7409    	0.000000    	                	;
 NODE_1314018    	145.4790    	0.000000    	                	;
 NODE_1329694    	145.5091    	0.000000    	                	;
 NODE_1327017    	145.0744    	0.000000    	                	;
 NODE_1338966    	143.0997    	0.000000    	                	;
 NODE_1326960    	144.2427    	0.000000    	                	;
 NODE_1314003    	144.2248    	0.000000    	                	;
 NODE_1314013    	145.3481    	0.000000    	                	;
 NODE_1314009    	144.4291    	0.000000    	                	;
 NODE_1314020    	144.1930    	0.000000    	                	;
 NODE_1321774    	147.8466    	0.000000    	                	;
 NODE_1325496    	146.7087    	0.000000    	                	;
 NODE_1327014    	147.4053    	0.000000    	                	;
 NODE_1321773    	145.5052    	0.000000    	                	;
 NODE_1330342    	146.0137    	0.000833    	                	;
 NODE_1329867    	145.3265    	0.000000    	                	;
 NODE_1330345    	145.0167    	0.000000    	                	;
 NODE_1343395    	144.1873    	0.000000    	                	;
 NODE_3530       	145.0532    	0.000000    	                	;
 NODE_3530_1     	145.0632    	0.000000    	                	;
 NODE_3522       	144.8251    	0.000000    	                	;
 NODE_3522_1     	144.8151    	0.000000    	                	;
 NODE_1343416    	144.3009    	0.000000    	                	;
 NODE_3997290    	146.2705    	0.000000    	                	;
 NODE_1343436    	143.2988    	0.000000    	                	;
 NODE_1345489    	142.0832    	0.000000    	                	;
 NODE_3380       	143.6535    	0.000000    	                	;
 NODE_3380_1     	143.6615    	0.000000    	                	;
 NODE_3500       	144.2321    	0.000000    	                	;
 NODE_3500_1     	144.2211    	0.000000    	                	;
 NODE_1321939    	144.3168    	0.000000    	                	;
 NODE_12650      	145.7146    	0.000000    	                	;
 NODE_12650_1    	145.6826    	0.000000    	                	;
 NODE_3528       	145.5274    	0.000000    	                	;
 NODE_3528_1     	145.5367    	0.000000    	                	;
 NODE_12841      	146.0384    	0.000000    	                	;
 NODE_12841_1    	146.0654    	0.000000    	                	;
 NODE_1343414    	144.8290    	0.000000    	                	;
 NODE_4577557    	143.6618    	0.000000    	                	;
 NODE_12665      	147.4675    	0.000000    	                	;
 NODE_12665_1    	147.4862    	0.000000    	                	;
 NODE_1345481    	147.4664    	0.000000    	                	;
 NODE_1343408    	145.5982    	0.000000    	                	;
 NODE_1345541    	145.2812    	0.000000    	                	;
 NODE_12659      	144.7905    	0.000000    	                	;
 NODE_12659_1    	144.7955    	0.000000    	                	;
 NODE_3964567    	144.2554    	0.000000    	                	;
 NODE_1343432    	145.2396    	0.000000    	                	;
 NODE_3964566    	144.2042    	0.000000    	                	;
 NODE_1343410    	145.5456    	0.000000    	                	;
 NODE_1345450    	145.3958    	0.000000    	                	;
 NODE_1343425    	144.2305    	0.000000    	                	;
 NODE_1345542    	146.2028    	0.000000    	                	;
 NODE_61         	144.1756    	0.000000    	                	;
 NODE_3520       	145.2368    	0.000000    	                	;
 NODE_3520_1     	145.1979    	0.000000    	                	;
 NODE_12670      	145.4844    	0.000000    	                	;
 NODE_12670_1    	145.4731    	0.000000    	                	;
 NODE_1343397    	144.2299    	0.000000    	                	;
 NODE_1326928    	145.3366    	0.000000    	                	;
 NODE_1345568    	145.7295    	0.000000    	                	;
 NODE_3967039    	145.0735    	0.000000    	                	;
 NODE_3531       	143.6617    	0.000000    	                	;
 NODE_3531_1     	143.6697    	0.000000    	                	;
 NODE_3964579    	144.2546    	0.000000    	                	;
 NODE_1345564    	144.5630    	0.000000    	                	;
 NODE_1343417    	144.2400    	0.000000    	                	;
 NODE_12663      	147.4701    	0.000000    	                	;
 NODE_12663_1    	147.4888    	0.000000    	                	;
 NODE_1343400    	144.1838    	0.000000    	                	;
 NODE_1343430    	144.1412    	0.000000    	                	;
 NODE_12673      	144.6362    	0.000000    	                	;
 NODE_12673_1    	144.6522    	0.000000    	                	;
 NODE_3521       	144.3023    	0.000000    	                	;
 NODE_3521_1     	144.2983    	0.000000    	                	;
 NODE_3964570    	144.1951    	0.000000    	                	;
 NODE_3517       	144.2309    	0.000000    	                	;
 NODE_3517_1     	144.2416    	0.000000    	                	;
 NODE_12649      	145.5556    	0.000000    	                	;
 NODE_12649_1    	145.5236    	0.000000    	                	;
 NODE_3964568    	144.2262    	0.000000    	                	;
 NODE_1343439    	148.7044    	0.000000    	                	;
 NODE_3383       	143.6585    	0.000000    	                	;
 NODE_3383_1     	143.6665    	0.000000    	                	;
 NODE_1345478    	147.1564    	0.000000    	                	;
 NODE_12658      	146.0331    	0.000000    	                	;
 NODE_12658_1    	146.0601    	0.000000    	                	;
 NODE_12662      	145.5334    	0.000000    	                	;
 NODE_12662_1    	145.5240    	0.000000    	                	;
 NODE_3527       	145.5303    	0.000000    	                	;
 NODE_3527_1     	145.5396    	0.000000    	                	;
 NODE_10854971   	145.5009    	0.000000    	                	;
 NODE_12674      	144.5671    	0.000000    	                	;
 NODE_12674_1    	144.5831    	0.000000    	                	;
 NODE_1345453    	145.5347    	0.000000    	                	;
 NODE_12664      	147.4629    	0.000000    	                	;
 NODE_12664_1    	147.4816    	0.000000    	                	;
 NODE_3518       	144.2295    	0.000000    	                	;
 NODE_1343411    	145.5275    	0.000000    	                	;
 NODE_3523       	144.8325    	0.000000    	                	;
 NODE_3523_1     	144.8225    	0.000000    	                	;
 NODE_1345480    	145.4875    	0.000000    	                	;
 NODE_1345455    	144.6803    	0.000000    	                	;
 NODE_3526       	143.2992    	0.000000    	                	;
 NODE_3526_1     	143.3231    	0.000000    	                	;
 NODE_84         	144.1599    	0.000000    	                	;
 NODE_3386       	144.1961    	0.000000    	                	;
 NODE_3386_1     	144.2111    	0.000000    	                	;
 NODE_1345477    	144.6351    	0.000000    	                	;
 NODE_3512       	144.2407    	0.000000    	                	;
 NODE_3512_1     	144.2514    	0.000000    	                	;
 NODE_14482      	144.1674    	0.000000    	                	;
 NODE_1343405    	143.6576    	0.000000    	                	;
 NODE_3525       	144.3756    	0.000000    	                	;
 NODE_3525_1     	144.3756    	0.000000    	                	;
 NODE_1343401    	143.7254    	0.000000    	                	;
 NODE_1343415    	144.3751    	0.000000    	                	;
 NODE_5813420    	152.4112    	0.000000    	                	;
 NODE_1343396    	144.2497    	0.000000    	                	;
 NODE_1345567    	145.5595    	0.000000    	                	;
 NODE_1343404    	144.2375    	0.000000    	                	;
 NODE_1345452    	144.3711    	0.000000    	                	;
 NODE_11003477   	145.5069    	0.000000    	                	;
 NODE_3519       	144.2370    	0.000000    	                	;
 NODE_3513       	144.2393    	0.000000    	                	;
 NODE_3513_1     	144.2500    	0.000000    	                	;
 NODE_3964547    	144.2870    	0.000000    	                	;
 NODE_1345454    	144.7895    	0.000000    	                	;
 NODE_12672      	144.6325    	0.000000    	                	;
 NODE_12672_1    	144.6485    	0.000000    	                	;
 NODE_1345573    	144.8556    	0.000000    	                	;
 NODE_12656      	144.6739    	0.000000    	                	;
 NODE_12656_1    	144.6739    	0.000000    	                	;
 NODE_12640      	146.1843    	0.000000    	                	;
 NODE_12640_1    	146.1443    	0.000000    	                	;
 NODE_1345571    	146.0346    	0.000000    	                	;
 NODE_1343394    	145.0506    	0.000000    	                	;
 NODE_1343399    	144.2096    	0.000000    	                	;
 NODE_3385       	144.1924    	0.000000    	                	;
 NODE_3385_1     	144.2074    	0.000000    	                	;
 NODE_10854980   	145.5117    	0.000000    	                	;
 NODE_12309      	148.7116    	0.000000    	                	;
 NODE_12309_1    	148.6970    	0.000000    	                	;
 NODE_1343426    	144.1941    	0.000000    	                	;
 NODE_3384       	144.1418    	0.000000    	                	;
 NODE_3384_1     	144.1568    	0.000000    	                	;
 NODE_12661      	147.1587    	0.000000    	                	;
 NODE_12661_1    	147.1534    	0.000000    	                	;
 NODE_12645      	142.0830    	0.000000    	                	;
 NODE_12645_1    	142.0896    	0.000000    	                	;
 NODE_12667      	147.4655    	0.000000    	                	;
 NODE_12667_1    	147.4842    	0.000000    	                	;
 NODE_1343413    	143.2068    	0.000000    	                	;
 NODE_3514       	145.5947    	0.000000    	                	;
 NODE_3514_1     	145.6040    	0.000000    	                	;
 NODE_1345487    	145.4088    	0.000000    	                	;

[RESERVOIRS]
;ID              	Head        	Pattern         
 PRESS_654       	185.0014    	                

[TANKS]
;ID             	Elevation   	InitLevel   	MinLevel    	MaxLevel    	Diameter    	MinVol      	VolCurve
 POOL_240        	143.4500    	1.9700      	0.0000      	1000.0000   	5.6383      	0.0000      	                	
 POOL_221        	179.3000    	4.4200      	0.0000      	1000.0000   	5.4794      	0.0000      	                	

[PIPES]
;ID             	Node1           	Node2           	Length      	Diameter    	Roughness   	MinorLoss   	Status
 PIPE_285108     	NODE_1343396    	NODE_3964547    	60.8536     	200.0000    	0.0200     	0.0000      	Open  ;
 PIPE_285109     	NODE_1343397    	NODE_3964568    	4.4380      	110.0000    	0.0200     	0.0000      	Open  ;
 PIPE_285121     	NODE_1343401    	NODE_1345452    	445.5528    	160.0000    	0.0200     	0.0000      	Open  ;
 PIPE_285123     	NODE_3518       	NODE_1343397    	0.2053      	110.0000    	0.0200     	0.0000      	Open  ;
 PIPE_285124     	NODE_1343404    	NODE_1343417    	0.5000      	110.0000    	0.0200     	0.0000      	Open  ;