[TITLE]
Converted from Epanet to Staci, case name: csapod.spr


[JUNCTIONS]
;ID              	Elev        	Demand      	Pattern         
 NODE_1318983    	147.2100    	0.000000    	                	;
 NODE_1335206    	147.0602    	0.000000    	                	;
 NODE_1331243    	147.1475    	0.000417    	                	;
 NODE_1337276    	144.5646    	0.000417    	                	;
 NODE_1337717    	145.6191    	0.000833    	                	;
 NODE_1337718    	146.9784    	0.000000    	                	;
 NODE_1318981    	146.5699    	0.000417    	                	;
 NODE_1318077    	146.7458    	0.001250    	                	;
 NODE_1333495    	146.6496    	0.000417    	                	;
 NODE_1333976    	145.8329    	0.003333    	                	;
 NODE_1338040    	143.7838    	0.004583    	                	;
 NODE_1318070    	143.8517    	0.002083    	                	;
 NODE_1338613    	144.0809    	0.004167    	                	;
 NODE_1333489    	143.1150    	0.000000    	                	;
 NODE_1333987    	145.7060    	0.000000    	                	;
 NODE_1334477    	145.6320    	0.000417    	                	;
 NODE_1334002    	145.3399    	0.001667    	                	;
 NODE_1334000    	145.0326    	0.006667    	                	;
 NODE_1318989    	145.0000    	0.002917    	                	;
 NODE_1333999    	144.9392    	0.004167    	                	;
 NODE_1315653    	143.9850    	0.003750    	                	;
 NODE_1334488    	144.0316    	0.000000    	                	;
 NODE_1338792    	144.0519    	0.000833    	                	;
 NODE_1315651    	144.2004    	0.001250    	                	;
 NODE_1333991    	146.3605    	0.000000    	                	;
 NODE_1338250    	145.8346    	0.000000    	                	;
 NODE_1325469    	148.7082    	0.000000    	                	;
 NODE_1321462    	151.9781    	0.005833    	                	;
 NODE_1335195    	148.6554    	0.000000    	                	;
 NODE_1331319    	148.6561    	0.005833    	                	;
 NODE_1335199    	148.8146    	0.038750    	                	;
 NODE_1315775    	147.8153    	0.004583    	                	;
 NODE_1334696    	147.7096    	0.000833    	                	;
 NODE_1334496    	148.5173    	0.000833    	                	;
 NODE_1334492    	147.4516    	0.002083    	                	;
 NODE_1334491    	147.3130    	0.000000    	                	;
 NODE_1325463    	147.1573    	0.002083    	                	;
 NODE_1325468    	147.9594    	0.004167    	                	;
 NODE_1335231    	146.4446    	0.002917    	                	;
 NODE_1335217    	146.2591    	0.001667    	                	;
 NODE_1335214    	145.6223    	0.004167    	                	;
 NODE_1320553    	143.3714    	0.000000    	                	;
 NODE_1331240    	145.8337    	0.002500    	                	;
 NODE_1331361    	148.7282    	0.002917    	                	;
 NODE_1337461    	145.2236    	0.000000    	                	;
 NODE_1337714    	151.0689    	0.002917    	                	;
 NODE_1331371    	146.7103    	0.002500    	                	;
 NODE_1320607    	146.5326    	0.002500    	                	;
 NODE_1318982    	146.9720    	0.000417    	                	;
 NODE_1335212    	146.1281    	0.007083    	                	;
 NODE_1334479    	145.4698    	0.001250    	                	;
 NODE_1333494    	146.1900    	0.002500    	                	;
 NODE_1330448    	146.7625    	0.000417    	                	;
 NODE_1333290    	143.9046    	0.002500    	                	;
 NODE_1318073    	144.0176    	0.006667    	                	;
 NODE_1318072    	146.0561    	0.003333    	                	;
 NODE_1334003    	145.4220    	0.002083    	                	;
 NODE_1330450    	145.1957    	0.000000    	                	;
 NODE_1330449    	144.9715    	0.002083    	                	;
 NODE_1333998    	144.5328    	0.000000    	                	;
 NODE_1338072    	144.1746    	0.000000    	                	;
 NODE_1334486    	144.0714    	0.004167    	                	;
 NODE_1315652    	144.0050    	0.001667    	                	;
 NODE_1333994    	148.5155    	0.000000    	                	;
 NODE_1325470    	147.7818    	0.000833    	                	;
 NODE_1316517    	146.8914    	0.000000    	                	;
 NODE_1334701    	153.8111    	0.000000    	                	;
 NODE_1334700    	150.6568    	0.003333    	                	;
 NODE_1320103    	151.4797    	0.001250    	                	;
 NODE_1334697    	148.3043    	0.004167    	                	;
 NODE_1335194    	149.1670    	0.001667    	                	;
 NODE_1335197    	148.6295    	0.000833    	                	;
 NODE_1316244    	148.6186    	0.001667    	                	;
 NODE_1338797    	147.7010    	0.004167    	                	;
 NODE_1338051    	148.5299    	0.007917    	                	;
 NODE_1334489    	146.7980    	0.005000    	                	;
 NODE_1320610    	147.1983    	0.000833    	                	;
 NODE_1334502    	147.0417    	0.006667    	                	;
 NODE_1335205    	146.6387    	0.000833    	                	;
 NODE_1330453    	147.2038    	0.005000    	                	;
 NODE_1335225    	147.3649    	0.000417    	                	;
 NODE_1335223    	147.4804    	0.000833    	                	;
 NODE_1322230    	146.7913    	0.003333    	                	;
 NODE_1335233    	146.4612    	0.001667    	                	;
 NODE_1316248    	147.2100    	0.040417    	                	;
 NODE_1335208    	146.2736    	0.000000    	                	;
 NODE_1316247    	146.6745    	0.001667    	                	;
 NODE_1316246    	146.2064    	0.001250    	                	;
 NODE_1335202    	146.0666    	0.003750    	                	;
 NODE_1331318    	146.3615    	0.003333    	                	;
 NODE_1333977    	143.7452    	0.000000    	                	;
 NODE_1336676    	147.8481    	0.000000    	                	;
 NODE_1330080    	143.1135    	0.000000    	                	;
 NODE_1337533    	145.4826    	0.000000    	                	;
 NODE_1328491    	147.7843    	0.000000    	                	;
 NODE_1331251    	149.9921    	0.006250    	                	;
 NODE_1337464    	149.8069    	0.000000    	                	;
 NODE_1333983    	146.8637    	0.000417    	                	;
 NODE_1333981    	146.4810    	0.004583    	                	;
 NODE_1335967    	145.4993    	0.005417    	                	;
 NODE_1333972    	146.3370    	0.003750    	                	;
 NODE_1333979    	146.9203    	0.001667    	                	;
 NODE_1318980    	145.6333    	0.002500    	                	;
 NODE_1327508    	145.4880    	0.002083    	                	;
 NODE_1318071    	143.8370    	0.001250    	                	;
 NODE_1333479    	144.3618    	0.004167    	                	;
 NODE_1333287    	145.2647    	0.002500    	                	;
 NODE_1333480    	144.0581    	0.007083    	                	;
 NODE_1336385    	144.7447    	0.013333    	                	;
 NODE_1334485    	143.9694    	0.000000    	                	;
 NODE_1334698    	148.3596    	0.003333    	                	;
 NODE_1335196    	148.6913    	0.003333    	                	;
 NODE_1315656    	148.1725    	0.005833    	                	;
 NODE_1334503    	146.8435    	0.000000    	                	;
 NODE_1334494    	146.9263    	0.000000    	                	;
 NODE_1334692    	147.1522    	0.001250    	                	;
 NODE_1315661    	147.2146    	0.000833    	                	;
 NODE_1315660    	147.3165    	0.004167    	                	;
 NODE_1322771    	147.2243    	0.003333    	                	;
 NODE_1334493    	146.7941    	0.008333    	                	;
 NODE_1336386    	147.6527    	0.002917    	                	;
 NODE_1335221    	147.1192    	0.003333    	                	;
 NODE_1316253    	147.4152    	0.007917    	                	;
 NODE_1325467    	146.8718    	0.000000    	                	;
 NODE_1325466    	146.8408    	0.000000    	                	;
 NODE_1335230    	147.3461    	0.000000    	                	;
 NODE_1335204    	146.1757    	0.000000    	                	;
 NODE_1335201    	145.3429    	0.003333    	                	;
 NODE_1316250    	145.3871    	0.003333    	                	;
 NODE_1335215    	145.4047    	0.002083    	                	;
 NODE_1333978    	144.0789    	0.000000    	                	;
 NODE_1322769    	148.3002    	0.000000    	                	;
 NODE_1337110    	150.8314    	0.000000    	                	;
 NODE_1331237    	144.9125    	0.003333    	                	;
 NODE_1331239    	143.7465    	0.000000    	                	;
 NODE_1331247    	146.5939    	0.000000    	                	;
 NODE_1331255    	147.5494    	0.002917    	                	;
 NODE_1331362    	148.2312    	0.003333    	                	;
 NODE_1337462    	144.1263    	0.000417    	                	;
 NODE_1333984    	146.8229    	0.002500    	                	;
 NODE_1318978    	146.4699    	0.000000    	                	;
 NODE_1333970    	146.3215    	0.006667    	                	;
 NODE_1318076    	146.7098    	0.000000    	                	;
 NODE_1331321    	145.7363    	0.000000    	                	;
 NODE_1333490    	143.4977    	0.002500    	                	;
 NODE_1318074    	144.1061    	0.000000    	                	;
 NODE_1327509    	144.7499    	0.000833    	                	;
 NODE_1338789    	144.8642    	0.005000    	                	;
 NODE_1334484    	144.1088    	0.001667    	                	;
 NODE_1333990    	144.0441    	0.005417    	                	;
 NODE_1333996    	146.3628    	0.000000    	                	;
 NODE_1325472    	144.8859    	0.000000    	                	;
 NODE_1334705    	147.8746    	0.002083    	                	;
 NODE_1334498    	147.8076    	0.000000    	                	;
 NODE_1334504    	146.8124    	0.001250    	                	;
 NODE_1334694    	147.0310    	0.003333    	                	;
 NODE_1334499    	147.4834    	0.001250    	                	;
 NODE_1321465    	147.0656    	0.003750    	                	;
 NODE_1335226    	147.2488    	0.000833    	                	;
 NODE_1316516    	146.9128    	0.001250    	                	;
 NODE_1335232    	146.2199    	0.001667    	                	;
 NODE_1335209    	146.5223    	0.001667    	                	;
 NODE_1335211    	146.9338    	0.000417    	                	;
 NODE_1316255    	147.1909    	0.000000    	                	;
 NODE_1331246    	146.9781    	0.008333    	                	;
 NODE_1331249    	149.5880    	0.000833    	                	;
 NODE_1331250    	149.8930    	0.001250    	                	;
 NODE_1331257    	146.3559    	0.000833    	                	;
 NODE_1331360    	146.5328    	0.002500    	                	;
 NODE_1337715    	145.5808    	0.004167    	                	;
 NODE_1337534    	152.8452    	0.000000    	                	;
 NODE_1315658    	146.6881    	0.002083    	                	;
 NODE_1333971    	146.2526    	0.005000    	                	;
 NODE_1333492    	146.5655    	0.000000    	                	;
 NODE_1333491    	146.9096    	0.001667    	                	;
 NODE_1316518    	144.2020    	0.002500    	                	;
 NODE_1318069    	144.3579    	0.014167    	                	;
 NODE_1318068    	144.7029    	0.000000    	                	;
 NODE_1333488    	144.3399    	0.000833    	                	;
 NODE_1333487    	144.3118    	0.002500    	                	;
 NODE_1333486    	144.3325    	0.006250    	                	;
 NODE_1333485    	144.0713    	0.005833    	                	;
 NODE_1333483    	144.8323    	0.004583    	                	;
 NODE_1334001    	145.0895    	0.000000    	                	;
 NODE_1334480    	144.1771    	0.001250    	                	;
 NODE_1337049    	144.0314    	0.002917    	                	;
 NODE_1318984    	143.9859    	0.003750    	                	;
 NODE_1331320    	146.1200    	0.000000    	                	;
 NODE_1333988    	146.6233    	0.000000    	                	;
 NODE_1331031    	146.2947    	0.000000    	                	;
 NODE_1321457    	144.7113    	0.000000    	                	;
 NODE_1334695    	150.8125    	0.001250    	                	;
 NODE_1334490    	147.2357    	0.001667    	                	;
 NODE_1334693    	147.0657    	0.000833    	                	;
 NODE_1334505    	147.4017    	0.000833    	                	;
 NODE_1334501    	146.9767    	0.000833    	                	;
 NODE_1337111    	147.8574    	0.005417    	                	;
 NODE_1325464    	147.2019    	0.004583    	                	;
 NODE_1316257    	146.2276    	0.000417    	                	;
 NODE_1335210    	146.1947    	0.000000    	                	;
 NODE_1316245    	146.0750    	0.006667    	                	;
 NODE_1335200    	146.1523    	0.000000    	                	;
 NODE_1316251    	146.2702    	0.001250    	                	;
 NODE_1316249    	145.5244    	0.000833    	                	;
 NODE_1331238    	144.1086    	0.002917    	                	;
 NODE_1331248    	146.6461    	0.000000    	                	;
 NODE_1331253    	146.9192    	0.000417    	                	;
 NODE_1337275    	144.8585    	0.000417    	                	;
 NODE_1333291    	143.7687    	0.000833    	                	;
 NODE_1333288    	144.8929    	0.000417    	                	;
 NODE_1333286    	144.4823    	0.000000    	                	;
 NODE_1333484    	145.6157    	0.000833    	                	;
 NODE_1335987    	144.7495    	0.007917    	                	;
 NODE_1333482    	146.2452    	0.001667    	                	;
 NODE_1338248    	145.5393    	0.005417    	                	;
 NODE_1334482    	144.2002    	0.005417    	                	;
 NODE_1338047    	144.1492    	0.002917    	                	;
 NODE_1334483    	144.0370    	0.006250    	                	;
 NODE_1334481    	144.8209    	0.000833    	                	;
 NODE_1321461    	144.5607    	0.001250    	                	;
 NODE_1318985    	143.9751    	0.002083    	                	;
 NODE_1333989    	144.0509    	0.000000    	                	;
 NODE_1325471    	150.0696    	0.000000    	                	;
 NODE_1334703    	153.7299    	0.000000    	                	;
 NODE_1315664    	151.8246    	0.002083    	                	;
 NODE_1315663    	148.4827    	0.000000    	                	;
 NODE_1316243    	148.7972    	0.003333    	                	;
 NODE_1321464    	148.9341    	0.000000    	                	;
 NODE_1315776    	148.7885    	0.005833    	                	;
 NODE_1334497    	147.6937    	0.000000    	                	;
 NODE_1315659    	147.1175    	0.007917    	                	;
 NODE_1316256    	147.4836    	0.001250    	                	;
 NODE_1335222    	147.3540    	0.001250    	                	;
 NODE_1330452    	146.9423    	0.002500    	                	;
 NODE_1316515    	146.7919    	0.005000    	                	;
 NODE_1325465    	146.8455    	0.001250    	                	;
 NODE_1331159    	146.2294    	0.000000    	                	;
 NODE_1318979    	145.3998    	0.000000    	                	;
 NODE_1333993    	143.4539    	0.043333    	                	;
 NODE_1333973    	144.3504    	0.000000    	                	;
 NODE_11002187   	144.1170    	0.000000    	                	;
 NODE_1331242    	148.3064    	0.000000    	                	;
 NODE_1331245    	147.3986    	0.001250    	                	;
 NODE_1331252    	153.6439    	0.000000    	                	;
 NODE_1331254    	145.9219    	0.005417    	                	;
 NODE_1331256    	147.7207    	0.002917    	                	;
 NODE_1337463    	146.7825    	0.003750    	                	;
 NODE_1337719    	145.0264    	0.000417    	                	;
 NODE_1337532    	148.3823    	0.000000    	                	;
 NODE_1333985    	146.6697    	0.000000    	                	;
 NODE_1333982    	146.3800    	0.001250    	                	;
 NODE_1333980    	146.8781    	0.004167    	                	;
 NODE_1333481    	147.1542    	0.004583    	                	;
 NODE_1333493    	146.4588    	0.006667    	                	;
 NODE_1333289    	143.7737    	0.002917    	                	;
 NODE_1337048    	146.4939    	0.001250    	                	;
 NODE_1334487    	144.1019    	0.001250    	                	;
 NODE_1334478    	143.9854    	0.002500    	                	;
 NODE_1318987    	153.7284    	0.000000    	                	;
 NODE_1333995    	146.2529    	0.000000    	                	;
 NODE_1334702    	153.7812    	0.007500    	                	;
 NODE_1315666    	151.5593    	0.003333    	                	;
 NODE_1335198    	148.8656    	0.000000    	                	;
 NODE_1334704    	148.9197    	0.001667    	                	;
 NODE_1338253    	147.3385    	0.003750    	                	;
 NODE_1338793    	147.2905    	0.000833    	                	;
 NODE_1335229    	147.4359    	0.004167    	                	;
 NODE_1335224    	147.4086    	0.002083    	                	;
 NODE_1330451    	147.1912    	0.007500    	                	;
 NODE_1335203    	146.1900    	0.000000    	                	;
 NODE_1318986    	144.7419    	0.000000    	                	;
 NODE_1331241    	145.4812    	0.005000    	                	;
 NODE_1331244    	147.0541    	0.005833    	                	;
 NODE_1337460    	145.0383    	0.003333    	                	;
 NODE_1337716    	144.8432    	0.000000    	                	;
 NODE_1333969    	146.3170    	0.002083    	                	;
 NODE_1333974    	145.8133    	0.002917    	                	;
 NODE_1333292    	143.7101    	0.000000    	                	;
 NODE_1333975    	145.5552    	0.001667    	                	;
 NODE_1318990    	145.3661    	0.003333    	                	;
 NODE_1315650    	144.1516    	0.002500    	                	;
 NODE_1333997    	144.1525    	0.004167    	                	;
 NODE_1318988    	144.0061    	0.001667    	                	;
 NODE_1334699    	148.9127    	0.002083    	                	;
 NODE_1315665    	148.8637    	0.000833    	                	;
 NODE_1335193    	148.0414    	0.000000    	                	;
 NODE_1335192    	148.0389    	0.000000    	                	;
 NODE_1315662    	148.2451    	0.000000    	                	;
 NODE_1315657    	149.0682    	0.000000    	                	;
 NODE_1334495    	148.3161    	0.003750    	                	;
 NODE_1315655    	147.1552    	0.000000    	                	;
 NODE_1315654    	146.8120    	0.004583    	                	;
 NODE_1334500    	146.6126    	0.000000    	                	;
 NODE_1335228    	147.0758    	0.005000    	                	;
 NODE_1335227    	147.1861    	0.002500    	                	;
 NODE_1316254    	147.0220    	0.001250    	                	;
 NODE_1320104    	146.6325    	0.000000    	                	;
 NODE_1335234    	146.4358    	0.004583    	                	;
 NODE_1337050    	146.8666    	0.000833    	                	;
 NODE_1335207    	146.5822    	0.005417    	                	;
 NODE_1335218    	146.8287    	0.002083    	                	;
 NODE_1338798    	146.2813    	0.010417    	                	;
 NODE_1335220    	146.2756    	0.000000    	                	;
 NODE_1322774    	146.3624    	0.002500    	                	;
 NODE_1335219    	146.6534    	0.000417    	                	;
 NODE_1316252    	144.9237    	0.000833    	                	;
 NODE_1335216    	145.1651    	0.000000    	                	;
 NODE_1335213    	145.6249    	0.005417    	                	;
 NODE_1343673    	148.3028    	0.000000    	                	;
 NODE_3964794    	143.5030    	0.000000    	                	;
 NODE_13205      	143.4482    	0.000000    	                	;
 NODE_13205_1    	143.4912    	0.000000    	                	;
 NODE_31655      	143.4967    	0.000000    	                	;
 NODE_1343622    	143.5165    	0.000000    	                	;
 NODE_1343667    	151.3143    	0.000000    	                	;
 NODE_13204      	143.4595    	0.000000    	                	;
 NODE_13204_1    	143.5025    	0.000000    	                	;
 NODE_12306      	143.4900    	0.000000    	                	;
 NODE_12306_1    	143.5330    	0.000000    	                	;
 NODE_3997367    	145.0500    	0.000000    	                	;
 NODE_12298      	145.6904    	0.000000    	                	;
 NODE_12298_1    	145.6870    	0.000000    	                	;
 NODE_12301      	145.0512    	0.000000    	                	;
 NODE_12301_1    	145.0479    	0.000000    	                	;
 NODE_13203      	143.3361    	0.000000    	                	;
 NODE_13203_1    	143.3454    	0.000000    	                	;
 NODE_12305      	143.5031    	0.000000    	                	;
 NODE_12305_1    	143.5461    	0.000000    	                	;
 NODE_1343684    	145.6589    	0.000000    	                	;
 NODE_12133      	147.5329    	0.000000    	                	;
 NODE_12133_1    	147.5429    	0.000000    	                	;
 NODE_12303      	146.8539    	0.000000    	                	;
 NODE_12303_1    	146.8239    	0.000000    	                	;
 NODE_1343691    	144.6565    	0.000000    	                	;
 NODE_12136      	151.3176    	0.000000    	                	;
 NODE_12136_1    	151.3126    	0.000000    	                	;
 NODE_1343668    	146.8575    	0.000000    	                	;
 NODE_1343623    	143.5974    	0.000000    	                	;
 NODE_12289      	145.6552    	0.000000    	                	;
 NODE_12289_1    	145.6282    	0.000000    	                	;
 NODE_12287      	146.4768    	0.000000    	                	;
 NODE_12287_1    	146.4615    	0.000000    	                	;
 NODE_1343620    	145.6904    	0.000000    	                	;
 NODE_12300      	145.0489    	0.000000    	                	;
 NODE_12300_1    	145.0456    	0.000000    	                	;
 NODE_12135      	148.3058    	0.000000    	                	;
 NODE_12135_1    	148.2748    	0.000000    	                	;
 NODE_12132      	147.5301    	0.000000    	                	;
 NODE_12132_1    	147.5401    	0.000000    	                	;
 NODE_12475      	146.4735    	0.000000    	                	;
 NODE_12475_1    	146.4726    	0.000000    	                	;
 NODE_12297      	145.6904    	0.000000    	                	;
 NODE_12297_1    	145.6870    	0.000000    	                	;
 NODE_1343669    	147.5275    	0.000000    	                	;
 NODE_37728      	143.2881    	0.000000    	                	;
 NODE_12294      	144.6531    	0.000000    	                	;
 NODE_12294_1    	144.6231    	0.000000    	                	;
 NODE_1343683    	145.4002    	0.000000    	                	;
 NODE_1343681    	146.3550    	0.000000    	                	;
 NODE_1343666    	146.4752    	0.000000    	                	;
 NODE_12302      	146.8621    	0.000000    	                	;
 NODE_12302_1    	146.8321    	0.000000    	                	;
 NODE_12292      	145.3995    	0.000000    	                	;
 NODE_12292_1    	145.4021    	0.000000    	                	;
 NODE_12304      	146.4745    	0.000000    	                	;
 NODE_12304_1    	146.4548    	0.000000    	                	;
 NODE_12134      	147.5325    	0.000000    	                	;
 NODE_12134_1    	147.5425    	0.000000    	                	;
 NODE_1343675    	143.3380    	0.000000    	                	;
 NODE_1343621    	144.1237    	0.000000    	                	;
 NODE_1343619    	147.5329    	0.000000    	                	;
 NODE_12299      	145.6932    	0.000000    	                	;
 NODE_12299_1    	145.6899    	0.000000    	                	;
 NODE_12288      	145.6570    	0.000000    	                	;
 NODE_12288_1    	145.6300    	0.000000    	                	;
 NODE_3984029    	145.9782    	0.000000    	                	;

[RESERVOIRS]
;ID              	Head        	Pattern         
 PRESS_121       	176.9748    	                

[TANKS]
;ID             	Elevation   	InitLevel   	MinLevel    	MaxLevel    	Diameter    	MinVol      	VolCurve
 POOL_227        	174.6500    	4.4000      	0.0000      	1000.0000   	6.0018      	0.0000      	                	

[PIPES]
;ID             	Node1           	Node2           	Length      	Diameter    	Roughness   	MinorLoss   	Status
 PIPE_286372     	PRESS_121       	NODE_1343675    	3.5682      	110.0000    	0.0200     	0.0000      	Open  ;
 PIPE_286375     	POOL_227        	NODE_3964794    	20.3610     	100.0000    	0.0200     	0.0000      	Open  ;
 PIPE_286433     	POOL_227        	NODE_1343622    	21.8158     	100.0000    	0.0200     	0.0000      	Open  ;
 PIPE_286571     	NODE_1343622    	NODE_1333993    	3.5006      	110.0000    	0.0200     	0.0000      	Open  ;
 PIPE_1423118    	NODE_1335967    	NODE_1334479    	8.5179      	100.0000    	0.0200     	0.0000      	Open  ;
 PIPE_1423123    	NODE_1335212    	NODE_1343684    	37.8130     	100.0000    	0.0200     	0.0000      	Open  ;
 PIPE_1423145    	NODE_1333980    	NODE_1333983    	7.4496      	100.0000    	0.0200     	0.0000      	Open  ;
 PIPE_1423157    	NODE_1333983    	NODE_1333984    	5.0885      	100.0000    	0.0200     	0.0000      	Open  ;
 PIPE_1423186    	NODE_1337719    	NODE_3997367    	12.3689     	100.0000    	0.0200     	0.0000      	Open  ;
 PIPE_1423190    	NODE_1331371    	NODE_1343681    	31.9651     	100.0000    	0.0200     	0.0000      	Open  ;
 PIPE_1423194    	NODE_1337718    	NODE_1318982    	13.1960     	100.0000    	0.0200     	0.0000      	Open  ;
 PIPE_1423200    	NODE_1343620    	NODE_1337717    	9.0139      	100.0000    	0.0200     	0.0000      	Open  ;
 PIPE_1423201    	NODE_1337717    	NODE_1337533    	19.3421     	100.0000    	0.0200     	0.0000      	Open  ;
 PIPE_1423251    	NODE_1331362    	NODE_1343673    	7.9910      	100.0000    	0.0200     	0.0000      	Open  ;
 PIPE_1423260    	NODE_1333481    	NODE_1331360    	73.0854     	100.0000    	0.0200     	0.0000      	Open  ;
 PIPE_1423265    	NODE_1333969    	NODE_1331257    	6.8433      	100.0000    	0.0200     	0.0000      	Open  ;
 PIPE_1423284    	NODE_1331254    	NODE_3984029    	11.9393     	100.0000    	0.0200     	0.0000      	Open  ;
 PIPE_1423291    	NODE_1337534    	NODE_1331252    	64.3260     	100.0000    	0.0200     	0.0000      	Open  ;
 PIPE_1423301    	NODE_1331251    	NODE_1331250    	26.6147     	100.0000    	0.0200     	0.0000      	Open  ;
 PIPE_1423302    	NODE_1331250    	NODE_1337464    	10.1966     	100.0000    	0.0200     	0.0000      	Open  ;
 PIPE_1423308    	NODE_1337464    	NODE_1331249    	26.3504     	100.0000    	0.0200     	0.0000      	Open  ;
 PIPE_1423351    	NODE_1331241    	NODE_1343683    	11.5947     	100.0000    	0.0200     	0.0000      	Open  ;
 PIPE_1423355    	NODE_1331240    	NODE_1338250    	0.0885      	100.0000    	0.0200     	0.0000      	Open  ;
 PIPE_1423359    	NODE_1333977    	NODE_1331239    	0.2442      	100.0000    	0.0200     	0.0000      	Open  ;
 PIPE_1423378    	NODE_1343675    	NODE_1320553    	5.3700      	110.0000    	0.0200     	0.0000      	Open  ;
 PIPE_1424513    	NODE_1335213    	NODE_1335214    	18.1960     	100.0000    	0.0200     	0.0000      	Open  ;
 PIPE_1424514    	NODE_1335214    	NODE_1337715    	19.2509     	100.0000    	0.0200     	0.0000      	Open  ;
 PIPE_1424519    	NODE_1337715    	NODE_1316249    	21.5317     	100.0000    	0.0200     	0.0000      	Open  ;
 PIPE_1424520    	NODE_1316249    	NODE_1335967    	17.7058     	100.0000    	0.0200     	0.0000      	Open  ;
 PIPE_1424525    	NODE_1334479    	NODE_1335215    	13.3501     	100.0000    	0.0200     	0.0000      	Open  ;
 PIPE_1424536    	NODE_1335216    	NODE_1316252    	17.9173     	100.0000    	0.0200     	0.0000      	Open  ;
 PIPE_1424537    	NODE_1316252    	NODE_1321457    	29.0497     	100.0000    	0.0200     	0.0000      	Open  ;
 PIPE_1424541    	NODE_1335215    	NODE_1316250    	2.5672      	100.0000    	0.0200     	0.0000      	Open  ;
 PIPE_1424542    	NODE_1316250    	NODE_1335216    	29.0845     	100.0000    	0.0200     	0.0000      	Open  ;
 PIPE_1424547    	NODE_1315658    	NODE_1335211    	25.7667     	100.0000    	0.0200     	0.0000      	Open  ;
 PIPE_1424553    	NODE_1318978    	NODE_1335219    	15.2705     	100.0000    	0.0200     	0.0000      	Open  ;
 PIPE_1424554    	NODE_1335219    	NODE_1315658    	5.1250      	100.0000    	0.0200     	0.0000      	Open  ;
 PIPE_1424559    	NODE_1333972    	NODE_1322774    	17.5777     	100.0000    	0.0200     	0.0000      	Open  ;
 PIPE_1424560    	NODE_1322774    	NODE_1318978    	10.9804     	100.0000    	0.0200     	0.0000      	Open  ;
 PIPE_1424566    	NODE_1316251    	NODE_1333972    	6.8742      	100.0000    	0.0200     	0.0000      	Open  ;
 PIPE_1424572    	NODE_1331318    	NODE_1316251    	15.1070     	100.0000    	0.0200     	0.0000      	Open  ;
 PIPE_1424577    	NODE_1333971    	NODE_1335220    	3.4292      	100.0000    	0.0200     	0.0000      	Open  ;
 PIPE_1424578    	NODE_1335220    	NODE_1331318    	12.8191     	100.0000    	0.0200     	0.0000      	Open  ;
 PIPE_1424583    	NODE_1333970    	NODE_1338798    	5.1544      	100.0000    	0.0200     	0.0000      	Open  ;
 PIPE_1424584    	NODE_1338798    	NODE_1333971    	10.2401     	100.0000    	0.0200     	0.0000      	Open  ;
 PIPE_1424589    	NODE_1335211    	NODE_1335206    	18.5830     	100.0000    	0.0200     	0.0000      	Open  ;
 PIPE_1424590    	NODE_1335206    	NODE_1333481    	12.5126     	100.0000    	0.0200     	0.0000      	Open  ;
 PIPE_1424595    	NODE_1343668    	NODE_1335218    	13.7268     	100.0000    	0.0200     	0.0000      	Open  ;
 PIPE_1424606    	NODE_1335217    	NODE_1335200    	7.3608      	100.0000    	0.0200     	0.0000      	Open  ;
 PIPE_1424612    	NODE_1335200    	NODE_1335201    	81.6441     	100.0000    	0.0200     	0.0000      	Open  ;
 PIPE_1424613    	NODE_1335201    	NODE_1331254    	139.4224    	100.0000    	0.0200     	0.0000      	Open  ;