[TITLE]
Converted from Epanet to Staci, case name: csillahegy.spr


[JUNCTIONS]
;ID              	Elev        	Demand      	Pattern         
 NODE_1342941    	147.9238    	0.000000    	                	;
 NODE_1342406    	156.1032    	0.005000    	                	;
 NODE_1342407    	154.7803    	0.004112    	                	;
 NODE_1328657    	154.5722    	0.004167    	                	;
 NODE_1328658    	155.3095    	0.003750    	                	;
 NODE_1342201    	153.3682    	0.008333    	                	;
 NODE_1319211    	163.7525    	0.001250    	                	;
 NODE_1342200    	163.7663    	0.002083    	                	;
 NODE_1319812    	151.1943    	0.004583    	                	;
 NODE_1341640    	163.6289    	0.001154    	                	;
 NODE_1341646    	147.7679    	0.003804    	                	;
 NODE_1341153    	163.7807    	0.000000    	                	;
 NODE_1316147    	159.9160    	0.000000    	                	;
 NODE_1319588    	161.8108    	0.000000    	                	;
 NODE_1342932    	155.8783    	0.006250    	                	;
 NODE_1342404    	164.0523    	0.004167    	                	;
 NODE_1342408    	146.6477    	0.006321    	                	;
 NODE_1342940    	163.8473    	0.008596    	                	;
 NODE_1322865    	161.1360    	0.003750    	                	;
 NODE_1341662    	148.1501    	0.000737    	                	;
 NODE_1316143    	160.1870    	0.000000    	                	;
 NODE_1342937    	163.5813    	0.000000    	                	;
 NODE_1319214    	158.5410    	0.000417    	                	;
 NODE_1316146    	163.5320    	0.010996    	                	;
 NODE_1342931    	157.1786    	0.000000    	                	;
 NODE_1342427    	162.5273    	0.000000    	                	;
 NODE_1316144    	153.9627    	0.010362    	                	;
 NODE_1342934    	143.6884    	0.009167    	                	;
 NODE_1342198    	161.9793    	0.004583    	                	;
 NODE_1342199    	164.0307    	0.005146    	                	;
 NODE_1319212    	164.0115    	0.000833    	                	;
 NODE_1319213    	161.9882    	0.002917    	                	;
 NODE_1341663    	161.3469    	0.000000    	                	;
 NODE_1341644    	160.8222    	0.002633    	                	;
 NODE_1341645    	157.0789    	0.002500    	                	;
 NODE_1341647    	150.0508    	0.005000    	                	;
 NODE_1342936    	137.3308    	0.000000    	                	;
 NODE_1331467    	164.0160    	0.001250    	                	;
 NODE_1321716    	163.3677    	0.004167    	                	;
 NODE_1321832    	163.8506    	0.000000    	                	;
 NODE_1342933    	155.8816    	0.002917    	                	;
 NODE_1321833    	160.2214    	0.010646    	                	;
 NODE_1342405    	162.8164    	0.008604    	                	;
 NODE_1335556    	161.3392    	0.001667    	                	;
 NODE_1322867    	148.6033    	0.003750    	                	;
 NODE_1341657    	148.7274    	0.007083    	                	;
 NODE_1342935    	145.1469    	0.000000    	                	;
 NODE_1341154    	156.5398    	0.000000    	                	;
 NODE_1341642    	164.0524    	0.003500    	                	;
 NODE_1330815    	163.7640    	0.001667    	                	;
 NODE_1316145    	162.2779    	0.000000    	                	;
 NODE_1341152    	164.0517    	0.000000    	                	;
 NODE_1330979    	161.7937    	0.004721    	                	;
 NODE_1319210    	161.4185    	0.010487    	                	;
 NODE_1342403    	164.0537    	0.006250    	                	;
 NODE_1342939    	162.4789    	0.009583    	                	;
 NODE_1335551    	160.4151    	0.010063    	                	;
 NODE_1336880    	137.4280    	0.000000    	                	;
 NODE_1341641    	160.8529    	0.006250    	                	;
 NODE_1331466    	157.1420    	0.002917    	                	;
 NODE_1345216    	159.4898    	0.000000    	                	;
 NODE_12395      	161.3853    	0.000000    	                	;
 NODE_12395_1    	161.3586    	0.000000    	                	;
 NODE_12399      	154.1382    	0.000000    	                	;
 NODE_12399_1    	153.9549    	0.000000    	                	;
 NODE_12401      	154.1799    	0.000000    	                	;
 NODE_12401_1    	153.9879    	0.000000    	                	;
 NODE_12421      	147.9472    	0.000000    	                	;
 NODE_12421_1    	147.7952    	0.000000    	                	;
 NODE_12393      	161.3828    	0.000000    	                	;
 NODE_12393_1    	161.3562    	0.000000    	                	;
 NODE_12418      	162.5236    	0.000000    	                	;
 NODE_12418_1    	162.4886    	0.000000    	                	;
 NODE_12400      	154.1717    	0.000000    	                	;
 NODE_12400_1    	153.9797    	0.000000    	                	;
 NODE_12235      	161.3904    	0.000000    	                	;
 NODE_12235_1    	161.3638    	0.000000    	                	;
 NODE_1345163    	162.5006    	0.000000    	                	;
 NODE_1345250    	163.5704    	0.000000    	                	;
 NODE_1345219    	161.3841    	0.000000    	                	;
 NODE_1345164    	153.5558    	0.000000    	                	;
 NODE_12406      	163.5737    	0.000000    	                	;
 NODE_12406_1    	163.5498    	0.000000    	                	;
 NODE_12398      	154.1509    	0.000000    	                	;
 NODE_12398_1    	153.9681    	0.000000    	                	;
 NODE_1345218    	154.1591    	0.000000    	                	;
 NODE_12213      	137.1988    	0.000000    	                	;
 NODE_12213_1    	137.0248    	0.000000    	                	;
 NODE_12394      	161.3784    	0.000000    	                	;
 NODE_12394_1    	161.3517    	0.000000    	                	;
 NODE_12423      	162.5310    	0.000000    	                	;
 NODE_12423_1    	162.4960    	0.000000    	                	;

[RESERVOIRS]
;ID              	Head        	Pattern         
 PRESS_652       	194.2582    	                

[TANKS]
;ID             	Elevation   	InitLevel   	MinLevel    	MaxLevel    	Diameter    	MinVol      	VolCurve

[PIPES]
;ID             	Node1           	Node2           	Length      	Diameter    	Roughness   	MinorLoss   	Status
 PIPE_1446512    	NODE_1345250    	NODE_1330815    	21.0513     	90.0000     	0.0200     	0.0000      	Open  ;
 PIPE_1446516    	NODE_1345164    	NODE_1316147    	112.2711    	90.0000     	0.0200     	0.0000      	Open  ;
 PIPE_1446767    	NODE_1322867    	NODE_1341657    	1.3952      	90.0000     	0.0200     	0.0000      	Open  ;
 PIPE_1446772    	NODE_1341657    	NODE_1341647    	15.2198     	90.0000     	0.0200     	0.0000      	Open  ;
 PIPE_1446778    	NODE_1341646    	NODE_1341662    	4.2727      	90.0000     	0.0200     	0.0000      	Open  ;
 PIPE_1446787    	NODE_1331466    	NODE_1341645    	1.1118      	90.0000     	0.0200     	0.0000      	Open  ;
 PIPE_1446799    	NODE_1341641    	NODE_1322865    	19.0346     	90.0000     	0.0200     	0.0000      	Open  ;
 PIPE_1446809    	NODE_1341662    	NODE_1319812    	35.1112     	90.0000     	0.0200     	0.0000      	Open  ;
 PIPE_1446820    	NODE_1341640    	NODE_1342200    	10.1553     	90.0000     	0.0200     	0.0000      	Open  ;
 PIPE_1446825    	NODE_1330815    	NODE_1319211    	8.7802      	90.0000     	0.0200     	0.0000      	Open  ;
 PIPE_1446826    	NODE_1319211    	NODE_1341153    	12.3857     	90.0000     	0.0200     	0.0000      	Open  ;
 PIPE_1446831    	NODE_1341647    	NODE_1342201    	40.9870     	90.0000     	0.0200     	0.0000      	Open  ;
 PIPE_1446832    	NODE_1342201    	NODE_1345164    	1.7257      	90.0000     	0.0200     	0.0000      	Open  ;
 PIPE_1446851    	NODE_1345216    	NODE_1335551    	43.5542     	90.0000     	0.0200     	0.0000      	Open  ;
 PIPE_1446852    	NODE_1335551    	NODE_1341641    	27.2713     	90.0000     	0.0200     	0.0000      	Open  ;
 PIPE_1446867    	NODE_1345163    	NODE_1342939    	1.7979      	90.0000     	0.0200     	0.0000      	Open  ;
 PIPE_1446873    	NODE_1316146    	NODE_1345250    	10.0962     	90.0000     	0.0200     	0.0000      	Open  ;
 PIPE_1446907    	NODE_1342408    	NODE_1341646    	14.8713     	90.0000     	0.0200     	0.0000      	Open  ;
 PIPE_1446912    	NODE_1345216    	NODE_1319214    	17.8572     	90.0000     	0.0200     	0.0000      	Open  ;
 PIPE_1446913    	NODE_1319214    	NODE_1331466    	30.0610     	90.0000     	0.0200     	0.0000      	Open  ;
 PIPE_1446917    	NODE_1328658    	NODE_1342407    	15.6998     	90.0000     	0.0200     	0.0000      	Open  ;
 PIPE_1446922    	NODE_1341645    	NODE_1342406    	19.9739     	90.0000     	0.0200     	0.0000      	Open  ;
 PIPE_1446923    	NODE_1342406    	NODE_1328658    	19.2127     	90.0000     	0.0200     	0.0000      	Open  ;
 PIPE_1446928    	NODE_1341663    	NODE_1335556    	2.3409      	90.0000     	0.0200     	0.0000      	Open  ;
 PIPE_1446940    	NODE_1319213    	NODE_1342405    	39.9758     	90.0000     	0.0200     	0.0000      	Open  ;
 PIPE_1446941    	NODE_1342405    	NODE_1321716    	34.8768     	90.0000     	0.0200     	0.0000      	Open  ;
 PIPE_1447172    	NODE_1342404    	NODE_1342403    	9.7069      	90.0000     	0.0200     	0.0000      	Open  ;
 PIPE_1447173    	NODE_1342403    	NODE_1341642    	0.1843      	90.0000     	0.0200     	0.0000      	Open  ;
 PIPE_1447178    	NODE_1341642    	NODE_1319212    	18.8251     	90.0000     	0.0200     	0.0000      	Open  ;
 PIPE_1447179    	NODE_1319212    	NODE_1331467    	2.9483      	90.0000     	0.0200     	0.0000      	Open  ;
 PIPE_1447184    	NODE_1331467    	NODE_1342199    	11.4940     	90.0000     	0.0200     	0.0000      	Open  ;
 PIPE_1447185    	NODE_1342199    	NODE_1321832    	20.8613     	90.0000     	0.0200     	0.0000      	Open  ;
 PIPE_1447189    	NODE_1335556    	NODE_1342198    	38.1628     	90.0000     	0.0200     	0.0000      	Open  ;
 PIPE_1447190    	NODE_1342198    	NODE_1319213    	0.2277      	90.0000     	0.0200     	0.0000      	Open  ;
 PIPE_1447196    	NODE_1319210    	NODE_1341644    	28.7863     	90.0000     	0.0200     	0.0000      	Open  ;
 PIPE_1447202    	NODE_1330979    	NODE_1319210    	13.7458     	90.0000     	0.0200     	0.0000      	Open  ;
 PIPE_1447546    	NODE_1341644    	NODE_1321833    	27.4032     	90.0000     	0.0200     	0.0000      	Open  ;
 PIPE_1447551    	NODE_1342200    	NODE_1341152    	50.1408     	90.0000     	0.0200     	0.0000      	Open  ;
 PIPE_1447552    	NODE_1341152    	NODE_1342404    	0.3994      	90.0000     	0.0200     	0.0000      	Open  ;
 PIPE_1447782    	NODE_1321716    	NODE_1342937    	10.7808     	90.0000     	0.0200     	0.0000      	Open  ;
 PIPE_1447783    	NODE_1342937    	NODE_1341640    	1.2940      	90.0000     	0.0200     	0.0000      	Open  ;
 PIPE_1447789    	NODE_1316145    	NODE_1316146    	69.6989     	90.0000     	0.0200     	0.0000      	Open  ;
 PIPE_1447794    	NODE_1342936    	NODE_1336880    	4.0770      	90.0000     	0.0200     	0.0000      	Open  ;
 PIPE_1447799    	NODE_1342935    	NODE_1342408    	23.8542     	90.0000     	0.0200     	0.0000      	Open  ;
 PIPE_1447804    	NODE_1336880    	NODE_1342934    	102.6727    	90.0000     	0.0200     	0.0000      	Open  ;
 PIPE_1447805    	NODE_1342934    	NODE_1342935    	14.8778     	90.0000     	0.0200     	0.0000      	Open  ;
 PIPE_1447810    	NODE_1342407    	NODE_1316144    	44.0618     	90.0000     	0.0200     	0.0000      	Open  ;
 PIPE_1447815    	NODE_1328657    	NODE_1342933    	51.7039     	90.0000     	0.0200     	0.0000      	Open  ;
 PIPE_1447820    	NODE_1342933    	NODE_1342932    	1.2822      	90.0000     	0.0200     	0.0000      	Open  ;
 PIPE_1447821    	NODE_1342932    	NODE_1341154    	18.4757     	90.0000     	0.0200     	0.0000      	Open  ;
 PIPE_1447829    	NODE_1321833    	NODE_1316143    	1.6945      	90.0000     	0.0200     	0.0000      	Open  ;
 PIPE_1447830    	NODE_1316143    	NODE_1345216    	10.8767     	90.0000     	0.0200     	0.0000      	Open  ;
 PIPE_1447834    	NODE_1342939    	NODE_1319588    	43.9771     	90.0000     	0.0200     	0.0000      	Open  ;
 PIPE_1447835    	NODE_1319588    	NODE_1330979    	0.6651      	90.0000     	0.0200     	0.0000      	Open  ;
 PIPE_2859949    	NODE_1345163    	NODE_12418_1    	1.8450      	90.0000     	0.0200     	0.0000      	Open  ;
 PIPE_2859950    	NODE_12418      	NODE_1342427    	0.3000      	90.0000     	0.0200     	0.0000      	Open  ;
 PIPE_2859972    	NODE_1342941    	NODE_12421_1    	0.2635      	90.0000     	0.0200     	0.0000      	Open  ;
 PIPE_2859973    	NODE_12421      	NODE_1322867    	7.3768      	90.0000     	0.0200     	0.0000      	Open  ;
 PIPE_2859986    	NODE_1316147    	NODE_12423_1    	149.6037    	90.0000     	0.0200     	0.0000      	Open  ;
 PIPE_2859987    	NODE_12423      	NODE_1342427    	0.3000      	90.0000     	0.0200     	0.0000      	Open  ;
 PIPE_2860042    	NODE_1345250    	NODE_12406_1    	0.2868      	63.0000     	0.0200     	0.0000      	Open  ;
 PIPE_2860043    	NODE_12406      	NODE_1342940    	31.7277     	63.0000     	0.0200     	0.0000      	Open  ;
 PIPE_2860080    	PRESS_652       	NODE_12213_1    	0.3232      	90.0000     	0.0200     	0.0000      	Open  ;
 PIPE_2860081    	NODE_12213      	NODE_1342936    	2.0455      	90.0000     	0.0200     	0.0000      	Open  ;
 PIPE_2860129    	NODE_1345218    	NODE_12401_1    	0.2157      	90.0000     	0.0200     	0.0000      	Open  ;
 PIPE_2860130    	NODE_12401      	NODE_1342931    	35.5217     	90.0000     	0.0200     	0.0000      	Open  ;
 PIPE_2860136    	NODE_1345218    	NODE_12400_1    	0.2223      	90.0000     	0.0200     	0.0000      	Open  ;
 PIPE_2860137    	NODE_12400      	NODE_1328657    	7.0513      	90.0000     	0.0200     	0.0000      	Open  ;
 PIPE_2860143    	NODE_1319812    	NODE_12399_1    	40.7182     	90.0000     	0.0200     	0.0000      	Open  ;
 PIPE_2860144    	NODE_12399      	NODE_1345218    	0.2157      	90.0000     	0.0200     	0.0000      	Open  ;
 PIPE_2860150    	NODE_1316144    	NODE_12398_1    	16.8174     	90.0000     	0.0200     	0.0000      	Open  ;
 PIPE_2860151    	NODE_12398      	NODE_1345218    	0.2441      	90.0000     	0.0200     	0.0000      	Open  ;
 PIPE_2860169    	NODE_1322865    	NODE_12395_1    	13.7174     	90.0000     	0.0200     	0.0000      	Open  ;
 PIPE_2860170    	NODE_12395      	NODE_1345219    	0.2241      	90.0000     	0.0200     	0.0000      	Open  ;
 PIPE_2860176    	NODE_1342931    	NODE_12394_1    	74.6014     	90.0000     	0.0200     	0.0000      	Open  ;
 PIPE_2860177    	NODE_12394      	NODE_1345219    	0.2085      	90.0000     	0.0200     	0.0000      	Open  ;
 PIPE_2860183    	NODE_1345219    	NODE_12393_1    	0.2241      	90.0000     	0.0200     	0.0000      	Open  ;
 PIPE_2860184    	NODE_12393      	NODE_1341663    	10.8766     	90.0000     	0.0200     	0.0000      	Open  ;
 PIPE_2860190    	NODE_1345219    	NODE_12235_1    	0.2277      	90.0000     	0.0200     	0.0000      	Open  ;
 PIPE_2860191    	NODE_12235      	NODE_1316145    	30.0551     	90.0000     	0.0200     	0.0000      	Open  ;

[PUMPS]
;ID             	Node1           	Node2           	Parameters

[VALVES]
;ID             	Node1           	Node2           	Diameter    	Type	Setting     	MinorLoss   
 VALVE_12421     	NODE_12421      	NODE_12421_1    	100.0000    	ISO 	0.0000      	0.0000      
 VALVE_12213     	NODE_12213      	NODE_12213_1    	100.0000    	ISO 	0.0000      	0.0000      
 VALVE_12395     	NODE_12395      	NODE_12395_1    	100.0000    	ISO 	0.0000      	0.0000      
 VALVE_12398     	NODE_12398      	NODE_12398_1    	100.0000    	ISO 	0.0000      	0.0000      
 VALVE_12394     	NODE_12394      	NODE_12394_1    	100.0000    	ISO 	0.0000      	0.0000      
 VALVE_12423     	NODE_12423      	NODE_12423_1    	100.0000    	ISO 	0.0000      	0.0000      
 VALVE_12393     	NODE_12393      	NODE_12393_1    	100.0000    	ISO 	0.0000      	0.0000      
 VALVE_12400     	NODE_12400      	NODE_12400_1    	100.0000    	ISO 	0.0000      	0.0000      
 VALVE_12401     	NODE_12401      	NODE_12401_1    	100.0000    	ISO 	0.0000      	0.0000      
 VALVE_12418     	NODE_12418      	NODE_12418_1    	100.0000    	ISO 	0.0000      	0.0000      
 VALVE_12406     	NODE_12406      	NODE_12406_1    	100.0000    	ISO 	0.0000      	0.0000      
 VALVE_12235     	NODE_12235      	NODE_12235_1    	100.0000    	ISO 	0.0000      	0.0000      
 VALVE_12399     	NODE_12399      	NODE_12399_1    	100.0000    	ISO 	0.0000      	0.0000      

[TAGS]

[DEMANDS]
;Junction       	Demand      	Pattern         	Category

[STATUS]
;ID              	Status/Setting

[PATTERNS]
;ID             	Multipliers

[CURVES]
;ID             	X-Value     	Y-Value

[CONTROLS]

[RULES]

[ENERGY]

[EMITTERS]

[QUALITY]

[SOURCES]

[REACTIONS]

[MIXING]

[TIMES]

[REPORT]

[OPTIONS]
 Units              	LPS
 Headloss           	C-F
 Specific Gravity   	1.0
 Viscosity          	1.0
 Trials             	40
 Accuracy           	0.001
 CHECKFREQ          	2
 MAXCHECK           	10
 DAMPLIMIT          	0
 Unbalanced         	Continue 10
 Pattern            	1
 Demand Multiplier  	1.0
 Emitter Exponent   	0.5
 Quality            	Chlorine mg/L
 Diffusivity        	1.0
 Tolerance          	0.01

[COORDINATES]
;Node           	X-Coord         	Y-Coord
 NODE_1342941    	255995.5698     	476440.1843     
 NODE_1342406    	255896.4130     	476483.3652     
 NODE_1342407    	255894.2867     	476518.1331     
 NODE_1328657    	255862.0304     	476575.7931     
 NODE_1328658    	255896.2857     	476502.5735     
 NODE_1342201    	255963.5185     	476383.5706     
 NODE_1319211    	255701.0546     	476385.8625     
 NODE_1342200    	255653.8066     	476547.0119     
 NODE_1319812    	255895.8720     	476601.8080     
 NODE_1341640    	255663.9491     	476547.5212     
 NODE_1341646    	255922.6082     	476630.7263     
 NODE_1341153    	255694.5724     	476375.3086     
 NODE_1316147    	255911.7801     	476282.1266     
 NODE_1319588    	255830.5962     	476361.1899     
 NODE_1342932    	255820.3257     	476608.0401     
 NODE_1342404    	255607.0570     	476529.2221     
 NODE_1342408    	255933.3588     	476641.0007     
 NODE_1342940    	255691.7140     	476427.3893     
 NODE_1322865    	255801.3174     	476487.6077     
 NODE_1341662    	255919.7076     	476627.5890     
 NODE_1316143    	255858.4368     	476425.7573     
 NODE_1342937    	255665.2415     	476547.5861     
 NODE_1319214    	255882.8336     	476434.4710     
 NODE_1316146    	255724.3184     	476418.2643     
 NODE_1342931    	255842.9339     	476546.3614     
 NODE_1342427    	255800.2174     	476324.1311     
 NODE_1316144    	255879.3289     	476558.9392     
 NODE_1342934    	255960.7400     	476668.3703     
 NODE_1342198    	255746.4710     	476523.4097     
 NODE_1342199    	255569.8207     	476507.4021     
 NODE_1319212    	255582.2680     	476514.7264     
 NODE_1319213    	255746.2827     	476523.5378     
 NODE_1341663    	255779.9656     	476500.6356     
 NODE_1341644    	255854.2028     	476397.0001     
 NODE_1341645    	255893.7226     	476463.6631     
 NODE_1341647    	255982.0844     	476420.0444     
 NODE_1342936    	256051.0775     	476685.8983     
 NODE_1331467    	255579.7270     	476513.2312     
 NODE_1321716    	255675.9515     	476546.4054     
 NODE_1321832    	255551.0729     	476498.8193     
 NODE_1342933    	255821.1790     	476607.0830     
 NODE_1321833    	255858.2265     	476424.0759     
 NODE_1342405    	255710.2228     	476540.1764     
 NODE_1335556    	255778.0298     	476501.9518     
 NODE_1322867    	255991.0807     	476434.0019     
 NODE_1341657    	255990.2609     	476432.8729     
 NODE_1342935    	255950.6239     	476657.4610     
 NODE_1341154    	255808.1397     	476621.8343     
 NODE_1341642    	255598.5133     	476524.2380     
 NODE_1330815    	255705.6499     	476393.3442     
 NODE_1316145    	255769.4733     	476471.3482     
 NODE_1341152    	255607.4020     	476529.4233     
 NODE_1330979    	255831.0171     	476361.7048     
 NODE_1319210    	255839.4014     	476372.5860     
 NODE_1342403    	255598.6725     	476524.3309     
 NODE_1342939    	255802.7615     	476327.1426     
 NODE_1335551    	255840.8256     	476463.8030     
 NODE_1336880    	256047.3665     	476687.5865     
 NODE_1341641    	255817.9793     	476478.4044     
 NODE_1331466    	255893.3976     	476462.5998     
 NODE_1345216    	255866.9321     	476429.3662     
 NODE_12395      	255789.3100     	476494.2400     
 NODE_12395_1    	255791.3100     	476494.2400     
 NODE_12399      	255868.2300     	476571.9100     
 NODE_12399_1    	255870.2300     	476571.9100     
 NODE_12401      	255867.9300     	476571.6000     
 NODE_12401_1    	255869.9300     	476571.6000     
 NODE_12421      	255995.4149     	476439.9711     
 NODE_12421_1    	255997.4149     	476439.9711     
 NODE_12393      	255788.9600     	476494.5200     
 NODE_12393_1    	255790.9600     	476494.5200     
 NODE_12418      	255800.4106     	476324.3607     
 NODE_12418_1    	255802.4106     	476324.3607     
 PRESS_652       	256053.2840     	476685.0729     
 NODE_12400      	255867.8951     	476571.8784     
 NODE_12400_1    	255869.8951     	476571.8784     
 NODE_12235      	255788.9872     	476494.2068     
 NODE_12235_1    	255790.9872     	476494.2068     
 NODE_1345163    	255801.6236     	476325.7507     
 NODE_1345250    	255718.5706     	476409.9639     
 NODE_1345219    	255789.1350     	476494.3800     
 NODE_1345164    	255962.7914     	476382.0055     
 NODE_12406      	255718.3300     	476410.1200     
 NODE_12406_1    	255720.3300     	476410.1200     
 NODE_12398      	255868.2435     	476571.5738     
 NODE_12398_1    	255870.2435     	476571.5738     
 NODE_1345218    	255868.0800     	476571.7550     
 NODE_12213      	256052.9673     	476685.1372     
 NODE_12213_1    	256054.9673     	476685.1372     
 NODE_12394      	255789.2854     	476494.5244     
 NODE_12394_1    	255791.2854     	476494.5244     
 NODE_12423      	255800.0243     	476323.9015     
 NODE_12423_1    	255802.0243     	476323.9015     

[VERTICES]

[LABELS]

[BACKDROP]

[END]
