[TITLE]
Converted from Epanet to Staci, case name: dudlesz.spr


[JUNCTIONS]
;ID              	Elev        	Demand      	Pattern         
 NODE_1326655    	276.5420    	0.000000    	                	;
 NODE_1327971    	250.5766    	0.000000    	                	;
 NODE_1322712    	269.6076    	0.002917    	                	;
 NODE_1323543    	269.6764    	0.000000    	                	;
 NODE_1317740    	269.4643    	0.000000    	                	;
 NODE_1337007    	248.1605    	0.000000    	                	;
 NODE_1316860    	247.7112    	0.000000    	                	;
 NODE_1312316    	248.6380    	0.000000    	                	;
 NODE_1327951    	241.3475    	0.004167    	                	;
 NODE_1333265    	252.1405    	0.000000    	                	;
 NODE_1336021    	256.9480    	0.000417    	                	;
 NODE_1336405    	245.5654    	0.000000    	                	;
 NODE_1321625    	250.5240    	0.000000    	                	;
 NODE_1323552    	252.5955    	0.000417    	                	;
 NODE_1338397    	259.3769    	0.000417    	                	;
 NODE_1334671    	259.1545    	0.011250    	                	;
 NODE_6259796    	266.7721    	0.000833    	                	;
 NODE_1324087    	259.7882    	0.000000    	                	;
 NODE_1312321    	237.1479    	0.000000    	                	;
 NODE_1326367    	267.2572    	0.000000    	                	;
 NODE_1326075    	245.9148    	0.005833    	                	;
 NODE_1316682    	261.4021    	0.004583    	                	;
 NODE_1326060    	252.6116    	0.000000    	                	;
 NODE_1324081    	250.9680    	0.000417    	                	;
 NODE_1326695    	258.2997    	0.000417    	                	;
 NODE_1338354    	263.6591    	0.001250    	                	;
 NODE_1316006    	267.9386    	0.000000    	                	;
 NODE_1319275    	223.8971    	0.012917    	                	;
 NODE_1323456    	265.2955    	0.000000    	                	;
 NODE_5810157    	246.4177    	0.000000    	                	;
 NODE_1323577    	248.0549    	0.000000    	                	;
 NODE_1316645    	248.3014    	0.000000    	                	;
 NODE_1325048    	269.4783    	0.000000    	                	;
 NODE_1325057    	270.2626    	0.000000    	                	;
 NODE_1312286    	247.4647    	0.000000    	                	;
 NODE_1331139    	263.1930    	0.001250    	                	;
 NODE_1317112    	261.2623    	0.000000    	                	;
 NODE_1334160    	254.0442    	0.005417    	                	;
 NODE_1325369    	229.9218    	0.000000    	                	;
 NODE_1338899    	256.2355    	0.000000    	                	;
 NODE_1312327    	241.6115    	0.001667    	                	;
 NODE_1318833    	251.2974    	0.000000    	                	;
 NODE_1326708    	252.6491    	0.000000    	                	;
 NODE_1321931    	249.0522    	0.000000    	                	;
 NODE_1323354    	261.3832    	0.000000    	                	;
 NODE_1326656    	261.2589    	0.000000    	                	;
 NODE_1325544    	259.8033    	0.000000    	                	;
 NODE_1325350    	262.0886    	0.000000    	                	;
 NODE_1316684    	253.3453    	0.000417    	                	;
 NODE_1325155    	258.3415    	0.000000    	                	;
 NODE_1312280    	257.6933    	0.000000    	                	;
 NODE_1326236    	259.2410    	0.000833    	                	;
 NODE_1312078    	230.0106    	0.285833    	                	;
 NODE_1323314    	263.2672    	0.000000    	                	;
 NODE_1337631    	271.9914    	0.000000    	                	;
 NODE_1315498    	266.1868    	0.000000    	                	;
 NODE_1318601    	255.1216    	0.000000    	                	;
 NODE_6268328    	244.3862    	0.006667    	                	;
 NODE_1324671    	258.2224    	0.009167    	                	;
 NODE_1336933    	251.4771    	0.002917    	                	;
 NODE_1326696    	259.7800    	0.000000    	                	;
 NODE_1316705    	260.6813    	0.000833    	                	;
 NODE_1321627    	251.9821    	0.000000    	                	;
 NODE_1323326    	250.5117    	0.000000    	                	;
 NODE_1325179    	256.6830    	0.000000    	                	;
 NODE_1316652    	233.7464    	0.000000    	                	;
 NODE_1316642    	244.2328    	0.007917    	                	;
 NODE_1324799    	255.8134    	0.008333    	                	;
 NODE_1337632    	265.1473    	0.000000    	                	;
 NODE_1325371    	226.4721    	0.003750    	                	;
 NODE_1324679    	243.9595    	0.000000    	                	;
 NODE_1336349    	246.8673    	0.000000    	                	;
 NODE_4484546    	242.7782    	0.011250    	                	;
 NODE_1325349    	256.1286    	0.000000    	                	;
 NODE_1316706    	256.4147    	0.000000    	                	;
 NODE_1315713    	267.3297    	0.000000    	                	;
 NODE_1326227    	268.7432    	0.000000    	                	;
 NODE_1324782    	239.9340    	0.290000    	                	;
 NODE_1326697    	260.4262    	0.001667    	                	;
 NODE_1323459    	260.5119    	0.000000    	                	;
 NODE_1326691    	259.2944    	0.000000    	                	;
 NODE_1316865    	242.5985    	0.001250    	                	;
 NODE_1323457    	268.9815    	0.000000    	                	;
 NODE_1325395    	250.3193    	0.000000    	                	;
 NODE_1323342    	264.0852    	0.000000    	                	;
 NODE_1321630    	269.9967    	0.000000    	                	;
 NODE_1311886    	240.4728    	0.000000    	                	;
 NODE_1325050    	269.4513    	0.000000    	                	;
 NODE_1335743    	247.9279    	0.005833    	                	;
 NODE_1338893    	258.9335    	0.000000    	                	;
 NODE_1312319    	241.2918    	0.000000    	                	;
 NODE_1316843    	250.1366    	0.000000    	                	;
 NODE_1316681    	252.2723    	0.009583    	                	;
 NODE_1323542    	257.0059    	0.019583    	                	;
 NODE_1321714    	268.0043    	0.000000    	                	;
 NODE_1324243    	257.9624    	0.000000    	                	;
 NODE_1316691    	259.8449    	0.000000    	                	;
 NODE_1323315    	262.0951    	0.000000    	                	;
 NODE_1323529    	269.3644    	0.000000    	                	;
 NODE_1316189    	269.3973    	0.006250    	                	;
 NODE_1312290    	248.2272    	0.000000    	                	;
 NODE_1312326    	242.0713    	0.002500    	                	;
 NODE_1316707    	245.0301    	0.002083    	                	;
 NODE_1323538    	255.6291    	0.000417    	                	;
 NODE_1326099    	243.3123    	0.000000    	                	;
 NODE_1329226    	253.9076    	0.000000    	                	;
 NODE_1325317    	241.0402    	0.000000    	                	;
 NODE_1324533    	253.9648    	0.000000    	                	;
 NODE_1323458    	271.7560    	0.000000    	                	;
 NODE_1318600    	252.0622    	0.000000    	                	;
 NODE_1326663    	260.3740    	0.000000    	                	;
 NODE_1316686    	253.7507    	0.000000    	                	;
 NODE_1338267    	256.2743    	0.000833    	                	;
 NODE_4583257    	248.4329    	0.000833    	                	;
 NODE_1337008    	240.6894    	0.000000    	                	;
 NODE_1330799    	266.0740    	0.000417    	                	;
 NODE_1326032    	239.8935    	0.000000    	                	;
 NODE_1324954    	256.8822    	0.000000    	                	;
 NODE_1323349    	247.7308    	0.000000    	                	;
 NODE_1326598    	269.3086    	0.000000    	                	;
 NODE_1312303    	244.8456    	0.004167    	                	;
 NODE_1326363    	267.2541    	0.000000    	                	;
 NODE_1316693    	259.9051    	0.000417    	                	;
 NODE_1323289    	245.4246    	0.000000    	                	;
 NODE_1323297    	269.0750    	0.000000    	                	;
 NODE_1323329    	270.9192    	0.000000    	                	;
 NODE_1317121    	254.3756    	0.000000    	                	;
 NODE_1323530    	251.9059    	0.000833    	                	;
 NODE_1324350    	259.1791    	0.000833    	                	;
 NODE_1312089    	249.9249    	0.004167    	                	;
 NODE_1328020    	239.7611    	0.000000    	                	;
 NODE_1325056    	268.4730    	0.000000    	                	;
 NODE_1337851    	252.0781    	0.000417    	                	;
 NODE_1338169    	257.7725    	0.025417    	                	;
 NODE_1335745    	246.9404    	0.000417    	                	;
 NODE_1321912    	241.4100    	0.000000    	                	;
 NODE_1320800    	239.1275    	0.000000    	                	;
 NODE_1323332    	255.6179    	0.001250    	                	;
 NODE_1323535    	248.9081    	0.006250    	                	;
 NODE_1326368    	267.6834    	0.000000    	                	;
 NODE_1326753    	259.1563    	0.000000    	                	;
 NODE_1323333    	268.9646    	0.000000    	                	;
 NODE_1334670    	260.3040    	0.007917    	                	;
 NODE_1312288    	248.4331    	0.000000    	                	;
 NODE_1324555    	246.7998    	0.000000    	                	;
 NODE_1326366    	270.9567    	0.004583    	                	;
 NODE_1321930    	249.7042    	0.000000    	                	;
 NODE_1323344    	259.3590    	0.002500    	                	;
 NODE_1323531    	259.5082    	0.000000    	                	;
 NODE_1312311    	232.0540    	0.003750    	                	;
 NODE_1327631    	252.7466    	0.005417    	                	;
 NODE_1312284    	246.2447    	0.000000    	                	;
 NODE_1312090    	253.1389    	0.000000    	                	;
 NODE_1325054    	266.8905    	0.000000    	                	;
 NODE_1324374    	248.3877    	0.018333    	                	;
 NODE_1326682    	271.2831    	0.001667    	                	;
 NODE_1330101    	245.5053    	0.000000    	                	;
 NODE_1326678    	252.1073    	0.000000    	                	;
 NODE_1318625    	253.5668    	0.000000    	                	;
 NODE_1317108    	259.3435    	0.001667    	                	;
 NODE_1324558    	234.1593    	0.000000    	                	;
 NODE_1318948    	233.9455    	0.000000    	                	;
 NODE_1316177    	263.0892    	0.000000    	                	;
 NODE_6287264    	245.5854    	0.000000    	                	;
 NODE_1323312    	261.6632    	0.000417    	                	;
 NODE_1312279    	257.9109    	0.004167    	                	;
 NODE_1316007    	264.7449    	0.000000    	                	;
 NODE_1323564    	258.7132    	0.000000    	                	;
 NODE_1326746    	257.5534    	0.000000    	                	;
 NODE_1321087    	241.5287    	0.003750    	                	;
 NODE_1323300    	250.2037    	0.000000    	                	;
 NODE_1326710    	249.4106    	0.000000    	                	;
 NODE_1337599    	268.7219    	0.000000    	                	;
 NODE_1323305    	269.9559    	0.000000    	                	;
 NODE_1323352    	263.3323    	0.000000    	                	;
 NODE_1316009    	269.4778    	0.000000    	                	;
 NODE_1337868    	239.8809    	0.000417    	                	;
 NODE_1338594    	255.2479    	0.002917    	                	;
 NODE_1326365    	267.4533    	0.001667    	                	;
 NODE_1317123    	259.6974    	0.000000    	                	;
 NODE_1325055    	267.8781    	0.000000    	                	;
 NODE_1317106    	261.2833    	0.000000    	                	;
 NODE_1312091    	255.2714    	0.000000    	                	;
 NODE_1316698    	251.2817    	0.000000    	                	;
 NODE_1316024    	246.1704    	0.000000    	                	;
 NODE_1338352    	261.7394    	0.000000    	                	;
 NODE_1312306    	248.3677    	0.001667    	                	;
 NODE_1332029    	237.7576    	0.000000    	                	;
 NODE_1323742    	260.9873    	0.000000    	                	;
 NODE_1324601    	269.5927    	0.000000    	                	;
 NODE_1325314    	268.9726    	0.000000    	                	;
 NODE_1331152    	251.5546    	0.000000    	                	;
 NODE_1317110    	244.7506    	0.001250    	                	;
 NODE_1323345    	255.8600    	0.008750    	                	;
 NODE_1330260    	239.1725    	0.068333    	                	;
 NODE_1312323    	234.7954    	0.000000    	                	;
 NODE_1326701    	248.1228    	0.002500    	                	;
 NODE_1316699    	256.0441    	0.000000    	                	;
 NODE_1316703    	268.8833    	0.000000    	                	;
 NODE_1326202    	251.2358    	0.003333    	                	;
 NODE_1312308    	235.9369    	0.000000    	                	;
 NODE_1325053    	263.6126    	0.000000    	                	;
 NODE_1323537    	267.7930    	0.000000    	                	;
 NODE_1317115    	255.9941    	0.000417    	                	;
 NODE_1323574    	251.8598    	0.000000    	                	;
 NODE_1312289    	248.4315    	0.000000    	                	;
 NODE_1322968    	248.0212    	0.000000    	                	;
 NODE_1326705    	268.7487    	0.001667    	                	;
 NODE_1312291    	247.6817    	0.000000    	                	;
 NODE_5810202    	239.8096    	0.027500    	                	;
 NODE_1326692    	260.5491    	0.000000    	                	;
 NODE_1326698    	259.0957    	0.000000    	                	;
 NODE_1323302    	247.5968    	0.000833    	                	;
 NODE_1321653    	255.1730    	0.000000    	                	;
 NODE_1323320    	253.2222    	0.000417    	                	;
 NODE_1326061    	253.6243    	0.000000    	                	;
 NODE_1312287    	248.3876    	0.002917    	                	;
 NODE_1321618    	234.8049    	0.000000    	                	;
 NODE_1324952    	267.3088    	0.000000    	                	;
 NODE_1326370    	265.7938    	0.000417    	                	;
 NODE_6268078    	240.9812    	0.000000    	                	;
 NODE_1312304    	246.4358    	0.004583    	                	;
 NODE_1326671    	250.7688    	0.000000    	                	;
 NODE_1317124    	249.8025    	0.000000    	                	;
 NODE_1325313    	248.9317    	0.000000    	                	;
 NODE_1326364    	266.8139    	0.000000    	                	;
 NODE_1324058    	259.0124    	0.000000    	                	;
 NODE_1323295    	268.8640    	0.000000    	                	;
 NODE_1323541    	261.8090    	0.000000    	                	;
 NODE_1323341    	261.4236    	0.000000    	                	;
 NODE_1317275    	268.3445    	0.000000    	                	;
 NODE_1325134    	251.3742    	0.000000    	                	;
 NODE_1325315    	269.4794    	0.000000    	                	;
 NODE_1326664    	251.7205    	0.007500    	                	;
 NODE_1316683    	256.1512    	0.000000    	                	;
 NODE_1337024    	253.6856    	0.000000    	                	;
 NODE_1324685    	240.6858    	0.000000    	                	;
 NODE_1323307    	252.0804    	0.000000    	                	;
 NODE_1323331    	269.7182    	0.000000    	                	;
 NODE_1322708    	253.9666    	0.000000    	                	;
 NODE_1326237    	253.2858    	0.000000    	                	;
 NODE_1326238    	268.5483    	0.000000    	                	;
 NODE_1324367    	251.9133    	0.002500    	                	;
 NODE_1325568    	248.4322    	0.060417    	                	;
 NODE_1334669    	265.1254    	0.000833    	                	;
 NODE_1330112    	264.3647    	0.000000    	                	;
 NODE_1323350    	252.1121    	0.008333    	                	;
 NODE_1326597    	260.1534    	0.000000    	                	;
 NODE_1330576    	240.0526    	0.000000    	                	;
 NODE_1326657    	260.0063    	0.000000    	                	;
 NODE_1331149    	245.0566    	0.000000    	                	;
 NODE_1312292    	246.7107    	0.002917    	                	;
 NODE_1316861    	242.2364    	0.000000    	                	;
 NODE_1331277    	256.1800    	0.000000    	                	;
 NODE_1317274    	272.2600    	0.000000    	                	;
 NODE_1312322    	238.3240    	0.005417    	                	;
 NODE_1316863    	236.0403    	0.000000    	                	;
 NODE_1326658    	244.6347    	0.000000    	                	;
 NODE_1323338    	256.0450    	0.000000    	                	;
 NODE_1325555    	258.9783    	0.000000    	                	;
 NODE_1323304    	260.5026    	0.000000    	                	;
 NODE_1325564    	262.9415    	0.000000    	                	;
 NODE_1323325    	252.1895    	0.000000    	                	;
 NODE_1329222    	216.6199    	0.000000    	                	;
 NODE_1326745    	252.8164    	0.000000    	                	;
 NODE_1326709    	246.4114    	0.000000    	                	;
 NODE_1316713    	263.8997    	0.000000    	                	;
 NODE_1312318    	240.5244    	0.000000    	                	;
 NODE_1325052    	264.0235    	0.000000    	                	;
 NODE_1338142    	263.8299    	0.000000    	                	;
 NODE_1335489    	256.2282    	0.005000    	                	;
 NODE_1320334    	272.2859    	0.000417    	                	;
 NODE_1312312    	230.0389    	0.000000    	                	;
 NODE_1316687    	253.6290    	0.002917    	                	;
 NODE_1321893    	261.0515    	0.000000    	                	;
 NODE_1320901    	240.2692    	0.009167    	                	;
 NODE_1326666    	251.8903    	0.000000    	                	;
 NODE_1323303    	268.9418    	0.000000    	                	;
 NODE_1316640    	258.9778    	0.000000    	                	;
 NODE_1337027    	255.5781    	0.000000    	                	;
 NODE_1316639    	247.4235    	0.002083    	                	;
 NODE_1324531    	256.5752    	0.009583    	                	;
 NODE_1311873    	268.4685    	0.002917    	                	;
 NODE_1323539    	247.5680    	0.004167    	                	;
 NODE_1316646    	248.3234    	0.000000    	                	;
 NODE_1318832    	261.0161    	0.000000    	                	;
 NODE_1316709    	265.0808    	0.000000    	                	;
 NODE_1323343    	266.2852    	0.000000    	                	;
 NODE_1326219    	256.2373    	0.000833    	                	;
 NODE_1326670    	253.0636    	0.000000    	                	;
 NODE_1316650    	247.2747    	0.002917    	                	;
 NODE_1325059    	269.0825    	0.000000    	                	;
 NODE_1323328    	253.8888    	0.000000    	                	;
 NODE_1321892    	258.3154    	0.000417    	                	;
 NODE_1312314    	247.3543    	0.000833    	                	;
 NODE_1316866    	241.9806    	0.004167    	                	;
 NODE_1326659    	255.5427    	0.000000    	                	;
 NODE_1326667    	252.3652    	0.000417    	                	;
 NODE_1323330    	265.3441    	0.000000    	                	;
 NODE_1326235    	259.7274    	0.000000    	                	;
 NODE_1318926    	255.0186    	0.000000    	                	;
 NODE_1325156    	231.1406    	0.000000    	                	;
 NODE_1323311    	254.5838    	0.000000    	                	;
 NODE_1317273    	267.8925    	0.002083    	                	;
 NODE_1326672    	252.2273    	0.000000    	                	;
 NODE_1324013    	268.9403    	0.000000    	                	;
 NODE_1325370    	228.7379    	0.004583    	                	;
 NODE_1326679    	253.9399    	0.001250    	                	;
 NODE_1323532    	256.7993    	0.000000    	                	;
 NODE_1312328    	240.3727    	0.002500    	                	;
 NODE_1333264    	249.9312    	0.003750    	                	;
 NODE_1326674    	255.2640    	0.000000    	                	;
 NODE_1326706    	270.1797    	0.001667    	                	;
 NODE_1338895    	263.9230    	0.000417    	                	;
 NODE_1324564    	255.0261    	0.000000    	                	;
 NODE_1338221    	259.1972    	0.000000    	                	;
 NODE_1320588    	249.9002    	0.000000    	                	;
 NODE_1316010    	262.8500    	0.000000    	                	;
 NODE_1322428    	247.8129    	0.000000    	                	;
 NODE_1312315    	247.9407    	0.000000    	                	;
 NODE_1312093    	260.4030    	0.000000    	                	;
 NODE_1320039    	270.5460    	0.000000    	                	;
 NODE_1337187    	246.3637    	0.001250    	                	;
 NODE_1326259    	246.4377    	0.001250    	                	;
 NODE_1325318    	256.5005    	0.000000    	                	;
 NODE_1312296    	248.6807    	0.001250    	                	;
 NODE_1326675    	258.0027    	0.000000    	                	;
 NODE_1326693    	260.5070    	0.000000    	                	;
 NODE_1317741    	263.6193    	0.000000    	                	;
 NODE_1312317    	242.3189    	0.001250    	                	;
 NODE_1324602    	270.0813    	0.005833    	                	;
 NODE_1335486    	249.0153    	0.001250    	                	;
 NODE_1323327    	268.8803    	0.000000    	                	;
 NODE_1322975    	264.0076    	0.000417    	                	;
 NODE_1326669    	253.3983    	0.000417    	                	;
 NODE_1326699    	254.1476    	0.002083    	                	;
 NODE_1319813    	268.1771    	0.000000    	                	;
 NODE_1322698    	235.6354    	0.017917    	                	;
 NODE_1316651    	237.1945    	0.000000    	                	;
 NODE_1316862    	239.5089    	0.000000    	                	;
 NODE_1325058    	269.5012    	0.000000    	                	;
 NODE_1326677    	255.2488    	0.000000    	                	;
 NODE_1323306    	268.8860    	0.000000    	                	;
 NODE_1323336    	271.5409    	0.006667    	                	;
 NODE_1338861    	268.2899    	0.001250    	                	;
 NODE_1312320    	237.1556    	0.000000    	                	;
 NODE_1337093    	265.6639    	0.000000    	                	;
 NODE_1326673    	252.5854    	0.000000    	                	;
 NODE_1326676    	251.1016    	0.000000    	                	;
 NODE_1326694    	257.8711    	0.000000    	                	;
 NODE_1323346    	271.7108    	0.000000    	                	;
 NODE_1323536    	252.2604    	0.000833    	                	;
 NODE_1312310    	232.8985    	0.001250    	                	;
 NODE_1324796    	256.9076    	0.002083    	                	;
 NODE_1324379    	269.2576    	0.000417    	                	;
 NODE_1337855    	254.8466    	0.007083    	                	;
 NODE_1337849    	242.1675    	0.004167    	                	;
 NODE_1320133    	251.9069    	0.000000    	                	;
 NODE_1336020    	246.6922    	0.000000    	                	;
 NODE_1338591    	240.9296    	0.000000    	                	;
 NODE_1326369    	268.6880    	0.000417    	                	;
 NODE_1316867    	241.3064    	0.001667    	                	;
 NODE_1312294    	248.4744    	0.004167    	                	;
 NODE_1323313    	264.2275    	0.000417    	                	;
 NODE_1316182    	268.9855    	0.000000    	                	;
 NODE_1311875    	241.1740    	0.012083    	                	;
 NODE_1316710    	257.2409    	0.002500    	                	;
 NODE_1318471    	260.4923    	0.000000    	                	;
 NODE_1325351    	258.5896    	0.000000    	                	;
 NODE_1326665    	255.1144    	0.001667    	                	;
 NODE_1312313    	246.4246    	0.004167    	                	;
 NODE_1326744    	252.4521    	0.000000    	                	;
 NODE_1316692    	265.5203    	0.000000    	                	;
 NODE_1326703    	248.0700    	0.000833    	                	;
 NODE_1326260    	250.8014    	0.004167    	                	;
 NODE_1325543    	259.1646    	0.000000    	                	;
 NODE_1324528    	252.9658    	0.004167    	                	;
 NODE_1321669    	255.2718    	0.000417    	                	;
 NODE_1312301    	243.1346    	0.000833    	                	;
 NODE_1324551    	262.0274    	0.000000    	                	;
 NODE_1326662    	251.4869    	0.000000    	                	;
 NODE_1325295    	255.1888    	0.000417    	                	;
 NODE_1321629    	268.9008    	0.000833    	                	;
 NODE_1337387    	269.9459    	0.000000    	                	;
 NODE_1325312    	246.1631    	0.000000    	                	;
 NODE_1316685    	252.1048    	0.000000    	                	;
 NODE_1321086    	236.6003    	0.000000    	                	;
 NODE_5810385    	251.7192    	0.000000    	                	;
 NODE_1324604    	244.1479    	0.000417    	                	;
 NODE_1324556    	237.4375    	0.002500    	                	;
 NODE_1325542    	252.4921    	0.000000    	                	;
 NODE_1312309    	235.7899    	0.020000    	                	;
 NODE_1312329    	241.0860    	0.002917    	                	;
 NODE_1312285    	247.4926    	0.000000    	                	;
 NODE_1316008    	266.0451    	0.000000    	                	;
 NODE_1311874    	241.1777    	0.000000    	                	;
 NODE_1331286    	241.4568    	0.000417    	                	;
 NODE_1326668    	252.0291    	0.000000    	                	;
 NODE_5810217    	239.8305    	0.000000    	                	;
 NODE_1323288    	268.6134    	0.000000    	                	;
 NODE_1312330    	240.7723    	0.000000    	                	;
 NODE_6268341    	241.3212    	0.000000    	                	;
 NODE_1321628    	252.2549    	0.000000    	                	;
 NODE_1323334    	250.4046    	0.006250    	                	;
 NODE_1323335    	252.1072    	0.002917    	                	;
 NODE_1318752    	237.9684    	0.000000    	                	;
 NODE_1338277    	239.1293    	0.000000    	                	;
 NODE_1323575    	257.1403    	0.002917    	                	;
 NODE_1312307    	254.9814    	0.000000    	                	;
 NODE_1337854    	253.6473    	0.003750    	                	;
 NODE_1338353    	269.9751    	0.000000    	                	;
 NODE_1323310    	266.2712    	0.006667    	                	;
 NODE_1317318    	257.1728    	0.000000    	                	;
 NODE_1325293    	243.4119    	0.005000    	                	;
 NODE_1316180    	263.0996    	0.000000    	                	;
 NODE_1323573    	249.7313    	0.000000    	                	;
 NODE_1326262    	250.8163    	0.008333    	                	;
 NODE_1316647    	248.8049    	0.002500    	                	;
 NODE_1325051    	269.9263    	0.000000    	                	;
 NODE_1318354    	259.8231    	0.000000    	                	;
 NODE_1325047    	270.6521    	0.000000    	                	;
 NODE_1321626    	273.3757    	0.000000    	                	;
 NODE_1324557    	235.9328    	0.004583    	                	;
 NODE_1325049    	268.9631    	0.000000    	                	;
 NODE_1325316    	246.4132    	0.000000    	                	;
 NODE_1323579    	252.2622    	0.000000    	                	;
 NODE_1326209    	251.1688    	0.000000    	                	;
 NODE_1316881    	240.6942    	0.001667    	                	;
 NODE_1323162    	268.9668    	0.000417    	                	;
 NODE_1324603    	272.9635    	0.000417    	                	;
 NODE_1325133    	253.9689    	0.000000    	                	;
 NODE_1324953    	265.5622    	0.000000    	                	;
 NODE_1316649    	243.5616    	0.000000    	                	;
 NODE_1322711    	268.6227    	0.000000    	                	;
 NODE_1316711    	267.9024    	0.003333    	                	;
 NODE_1321894    	256.3920    	0.000417    	                	;
 NODE_1334667    	242.1888    	0.000000    	                	;
 NODE_1321711    	267.8905    	0.000000    	                	;
 NODE_1336956    	253.0514    	0.000000    	                	;
 NODE_1333263    	249.3428    	0.000000    	                	;
 NODE_1325728    	262.4891    	0.000000    	                	;
 NODE_1312305    	247.5457    	0.000000    	                	;
 NODE_1314901    	238.9016    	0.140833    	                	;
 NODE_1316859    	246.1509    	0.000417    	                	;
 NODE_1323308    	266.6762    	0.000000    	                	;
 NODE_1312295    	248.5651    	0.000000    	                	;
 NODE_5810183    	255.1183    	0.000417    	                	;
 NODE_1326225    	268.8938    	0.000000    	                	;
 NODE_1325060    	264.4996    	0.000000    	                	;
 NODE_1326226    	250.9395    	0.000000    	                	;
 NODE_1322969    	247.3354    	0.000417    	                	;
 NODE_10887      	260.3797    	0.000000    	                	;
 NODE_10887_1    	260.4217    	0.000000    	                	;
 NODE_9133       	259.5692    	0.000000    	                	;
 NODE_9133_1     	259.6202    	0.000000    	                	;
 NODE_1344381    	257.7015    	0.000000    	                	;
 NODE_1344029    	216.2779    	0.000000    	                	;
 NODE_1344032    	218.8628    	0.000000    	                	;
 NODE_9134       	259.6491    	0.000000    	                	;
 NODE_9134_1     	259.7001    	0.000000    	                	;
 NODE_10894      	249.3502    	0.000000    	                	;
 NODE_10894_1    	249.2922    	0.000000    	                	;
 NODE_4099       	268.3318    	0.000000    	                	;
 NODE_4099_1     	268.3318    	0.000000    	                	;
 NODE_11093      	268.1974    	0.000000    	                	;
 NODE_11093_1    	268.2775    	0.000000    	                	;
 NODE_10883      	263.5006    	0.000000    	                	;
 NODE_10883_1    	263.5106    	0.000000    	                	;
 NODE_3845       	253.7468    	0.000000    	                	;
 NODE_3845_1     	253.8288    	0.000000    	                	;
 NODE_1343038    	253.0595    	0.000000    	                	;
 NODE_1343094    	259.6119    	0.000000    	                	;
 NODE_8729       	248.2906    	0.000000    	                	;
 NODE_8729_1     	248.2536    	0.000000    	                	;