[TITLE]
Converted from Epanet to Staci, case name: ebergoc.spr


[JUNCTIONS]
;ID              	Elev        	Demand      	Pattern         
 NODE_1338984    	134.8500    	0.000000    	                	;
 NODE_1326165    	137.5109    	0.000000    	                	;
 NODE_1317899    	134.6106    	0.000833    	                	;
 NODE_1325947    	134.3204    	0.000417    	                	;
 NODE_1316528    	135.1839    	0.003333    	                	;
 NODE_1320890    	134.9042    	0.000000    	                	;
 NODE_1326154    	135.9236    	0.005000    	                	;
 NODE_1317147    	134.8122    	0.000000    	                	;
 NODE_1326139    	135.9410    	0.000417    	                	;
 NODE_1317901    	137.8932    	0.000000    	                	;
 NODE_1326162    	134.8492    	0.002083    	                	;
 NODE_1331223    	134.8396    	0.000000    	                	;
 NODE_1325948    	134.5955    	0.002500    	                	;
 NODE_1337216    	135.8765    	0.005833    	                	;
 NODE_1317148    	135.1473    	0.001667    	                	;
 NODE_1326151    	135.0541    	0.001250    	                	;
 NODE_1326164    	138.1058    	0.001250    	                	;
 NODE_1326161    	134.7388    	0.000000    	                	;
 NODE_1317896    	135.9223    	0.000833    	                	;
 NODE_1326166    	137.2334    	0.001667    	                	;
 NODE_1326145    	132.7293    	0.003333    	                	;
 NODE_1325669    	134.9956    	0.007917    	                	;
 NODE_1326155    	135.9243    	0.002083    	                	;
 NODE_1316527    	134.6700    	0.000833    	                	;
 NODE_1326153    	135.9211    	0.001667    	                	;
 NODE_1322231    	134.7961    	0.004583    	                	;
 NODE_1326141    	135.5829    	0.000000    	                	;
 NODE_1326144    	134.4708    	0.001667    	                	;
 NODE_1337607    	138.0918    	0.000000    	                	;
 NODE_1322235    	134.3775    	0.000000    	                	;
 NODE_1338148    	135.2483    	0.000417    	                	;
 NODE_1326158    	135.1564    	0.000000    	                	;
 NODE_1325950    	134.6619    	0.000000    	                	;
 NODE_1326147    	134.1836    	0.000417    	                	;
 NODE_1326152    	135.2913    	0.007083    	                	;
 NODE_1326167    	136.9526    	0.001667    	                	;
 NODE_1326135    	135.1010    	0.001250    	                	;
 NODE_1326143    	134.6913    	0.000833    	                	;
 NODE_1317149    	134.2165    	0.002083    	                	;
 NODE_1317152    	134.6516    	0.000000    	                	;
 NODE_1326138    	134.1238    	0.000000    	                	;
 NODE_1327111    	134.9624    	0.000000    	                	;
 NODE_1326136    	134.8381    	0.000417    	                	;
 NODE_1326148    	134.1816    	0.003750    	                	;
 NODE_1328048    	135.9406    	0.000000    	                	;
 NODE_1326163    	135.3690    	0.002917    	                	;
 NODE_1326159    	134.8008    	0.002500    	                	;
 NODE_1326149    	134.5246    	0.001667    	                	;
 NODE_1326140    	135.7834    	0.001667    	                	;
 NODE_1317146    	134.3945    	0.000000    	                	;
 NODE_1322236    	138.0881    	0.000000    	                	;
 NODE_1326133    	134.9322    	0.002500    	                	;
 NODE_1317900    	135.2084    	0.002083    	                	;
 NODE_1326142    	135.1165    	0.007500    	                	;
 NODE_1325946    	134.5575    	0.001667    	                	;
 NODE_1317150    	135.3086    	0.005417    	                	;
 NODE_1317898    	135.5048    	0.002083    	                	;
 NODE_1337398    	135.9281    	0.004167    	                	;
 NODE_1326132    	134.8986    	0.002917    	                	;
 NODE_1318801    	134.8490    	0.002083    	                	;
 NODE_1326619    	135.1578    	0.001250    	                	;
 NODE_1317151    	135.4431    	0.000833    	                	;
 NODE_1327112    	135.8825    	0.000833    	                	;
 NODE_1325673    	134.6911    	0.006250    	                	;
 NODE_1316529    	134.8916    	0.003333    	                	;
 NODE_1326620    	137.6668    	0.000000    	                	;
 NODE_1326617    	134.3933    	0.000000    	                	;
 NODE_1326137    	134.3935    	0.010417    	                	;
 NODE_1317153    	134.3220    	0.000000    	                	;
 NODE_1326157    	135.7546    	0.000417    	                	;
 NODE_1325671    	135.0084    	0.000417    	                	;
 NODE_1326618    	134.9850    	0.006667    	                	;
 NODE_1325670    	135.1170    	0.000000    	                	;
 NODE_1326615    	134.6150    	0.009167    	                	;
 NODE_1335972    	134.5870    	0.003333    	                	;
 NODE_1318802    	135.1755    	0.001667    	                	;
 NODE_1317155    	135.6160    	0.001250    	                	;
 NODE_1325951    	134.7514    	0.000417    	                	;
 NODE_1317897    	135.9320    	0.000000    	                	;
 NODE_1317154    	134.6531    	0.001667    	                	;
 NODE_1326614    	135.0788    	0.000833    	                	;
 NODE_1326150    	134.7941    	0.005000    	                	;
 NODE_1317902    	136.6648    	0.006250    	                	;
 NODE_1326134    	135.1869    	0.001667    	                	;
 NODE_1326156    	135.8101    	0.005000    	                	;
 NODE_1325672    	134.9214    	0.000000    	                	;
 NODE_1325499    	134.9786    	0.000000    	                	;
 NODE_1337394    	134.6140    	0.000000    	                	;
 NODE_1337215    	135.1429    	0.001250    	                	;
 NODE_1318486    	133.6146    	0.000000    	                	;
 NODE_1337609    	134.8790    	0.000833    	                	;
 NODE_1326146    	133.0776    	0.010000    	                	;
 NODE_1343305    	135.5888    	0.000000    	                	;
 NODE_12320      	135.5865    	0.000000    	                	;
 NODE_12320_1    	135.6005    	0.000000    	                	;
 NODE_12326      	135.9200    	0.000000    	                	;
 NODE_12326_1    	135.9010    	0.000000    	                	;
 NODE_12325      	135.9168    	0.000000    	                	;
 NODE_12325_1    	135.8978    	0.000000    	                	;
 NODE_1343448    	134.5318    	0.000000    	                	;
 NODE_12319      	135.5912    	0.000000    	                	;
 NODE_12319_1    	135.6052    	0.000000    	                	;
 NODE_12316      	134.5002    	0.000000    	                	;
 NODE_12316_1    	134.4993    	0.000000    	                	;
 NODE_3997424    	134.5020    	0.000000    	                	;
 NODE_1343445    	133.8131    	0.000000    	                	;
 NODE_1343446    	135.9198    	0.000000    	                	;
 NODE_12315      	134.5038    	0.000000    	                	;
 NODE_12315_1    	134.4912    	0.000000    	                	;

[RESERVOIRS]
;ID              	Head        	Pattern         
 PRESS_12667485  	170.2121    	                

[TANKS]
;ID             	Elevation   	InitLevel   	MinLevel    	MaxLevel    	Diameter    	MinVol      	VolCurve

[PIPES]
;ID             	Node1           	Node2           	Length      	Diameter    	Roughness   	MinorLoss   	Status
 PIPE_289230     	PRESS_12667485  	NODE_1343448    	0.9500      	110.0000    	0.0200     	0.0000      	Open  ;
 PIPE_289234     	NODE_1343445    	NODE_1318486    	16.0989     	110.0000    	0.0200     	0.0000      	Open  ;
 PIPE_289237     	NODE_1343448    	NODE_3997424    	18.1599     	100.0000    	0.0200     	0.0000      	Open  ;
 PIPE_1414594    	NODE_1325499    	NODE_1327111    	7.0000      	100.0000    	0.0200     	0.0000      	Open  ;
 PIPE_1414626    	NODE_1326615    	NODE_1337394    	0.1288      	100.0000    	0.0200     	0.0000      	Open  ;
 PIPE_1414631    	NODE_1338984    	NODE_1318801    	0.0714      	100.0000    	0.0200     	0.0000      	Open  ;
 PIPE_1414646    	NODE_1322231    	NODE_1316527    	10.8378     	100.0000    	0.0200     	0.0000      	Open  ;
 PIPE_1414663    	NODE_1318802    	NODE_1316528    	2.6491      	100.0000    	0.0200     	0.0000      	Open  ;
 PIPE_1414670    	NODE_1325670    	NODE_1318802    	13.1818     	100.0000    	0.0200     	0.0000      	Open  ;
 PIPE_1414676    	NODE_1325671    	NODE_1325670    	17.7364     	100.0000    	0.0200     	0.0000      	Open  ;
 PIPE_1416852    	NODE_1326617    	NODE_1325946    	27.8769     	100.0000    	0.0200     	0.0000      	Open  ;
 PIPE_1416859    	NODE_1317146    	NODE_1326617    	9.2252      	100.0000    	0.0200     	0.0000      	Open  ;
 PIPE_1416867    	NODE_1325947    	NODE_1317146    	16.8612     	100.0000    	0.0200     	0.0000      	Open  ;
 PIPE_1416875    	NODE_1322235    	NODE_1325947    	20.7278     	100.0000    	0.0200     	0.0000      	Open  ;
 PIPE_1416884    	NODE_1325948    	NODE_1322235    	17.3236     	100.0000    	0.0200     	0.0000      	Open  ;
 PIPE_1416891    	NODE_1318801    	NODE_1335972    	17.6574     	100.0000    	0.0200     	0.0000      	Open  ;
 PIPE_1416892    	NODE_1335972    	NODE_1325948    	12.4048     	100.0000    	0.0200     	0.0000      	Open  ;
 PIPE_1416899    	NODE_1325946    	NODE_1325950    	20.0004     	100.0000    	0.0200     	0.0000      	Open  ;
 PIPE_1416900    	NODE_1325950    	NODE_1325673    	5.6028      	100.0000    	0.0200     	0.0000      	Open  ;
 PIPE_1416905    	NODE_1325673    	NODE_1325951    	11.9451     	100.0000    	0.0200     	0.0000      	Open  ;
 PIPE_1416911    	NODE_1325951    	NODE_1317147    	12.0513     	100.0000    	0.0200     	0.0000      	Open  ;
 PIPE_1416912    	NODE_1317147    	NODE_1316529    	15.7185     	100.0000    	0.0200     	0.0000      	Open  ;
 PIPE_1416918    	NODE_1316529    	NODE_1326132    	6.4297      	100.0000    	0.0200     	0.0000      	Open  ;
 PIPE_1416919    	NODE_1326132    	NODE_1325672    	13.2419     	100.0000    	0.0200     	0.0000      	Open  ;
 PIPE_1416924    	NODE_1325672    	NODE_1326133    	1.7958      	100.0000    	0.0200     	0.0000      	Open  ;
 PIPE_1416925    	NODE_1326133    	NODE_1325671    	12.5784     	100.0000    	0.0200     	0.0000      	Open  ;
 PIPE_1416931    	NODE_1316528    	NODE_1326134    	7.3130      	100.0000    	0.0200     	0.0000      	Open  ;
 PIPE_1416932    	NODE_1326134    	NODE_1326619    	28.5780     	100.0000    	0.0200     	0.0000      	Open  ;
 PIPE_1416937    	NODE_1326619    	NODE_1317148    	10.2133     	100.0000    	0.0200     	0.0000      	Open  ;
 PIPE_1416938    	NODE_1317148    	NODE_1337215    	4.3713      	100.0000    	0.0200     	0.0000      	Open  ;
 PIPE_1416943    	NODE_1337215    	NODE_1326135    	9.0782      	100.0000    	0.0200     	0.0000      	Open  ;
 PIPE_1416944    	NODE_1326135    	NODE_1325669    	6.1660      	100.0000    	0.0200     	0.0000      	Open  ;
 PIPE_1416950    	NODE_1325669    	NODE_1326136    	10.7798     	100.0000    	0.0200     	0.0000      	Open  ;
 PIPE_1416951    	NODE_1326136    	NODE_1322231    	3.6022      	100.0000    	0.0200     	0.0000      	Open  ;
 PIPE_1416956    	NODE_1316527    	NODE_1326137    	13.4885     	100.0000    	0.0200     	0.0000      	Open  ;
 PIPE_1416962    	NODE_1326137    	NODE_1317149    	5.3880      	100.0000    	0.0200     	0.0000      	Open  ;
 PIPE_1416967    	NODE_1317149    	NODE_1326138    	45.0906     	100.0000    	0.0200     	0.0000      	Open  ;
 PIPE_1416972    	NODE_1326138    	NODE_1337609    	56.3181     	100.0000    	0.0200     	0.0000      	Open  ;
 PIPE_1416977    	NODE_1337609    	NODE_1320890    	1.5711      	100.0000    	0.0200     	0.0000      	Open  ;
 PIPE_1416982    	NODE_1320890    	NODE_1317150    	23.3479     	100.0000    	0.0200     	0.0000      	Open  ;
 PIPE_1416993    	NODE_1326139    	NODE_1326140    	10.3750     	100.0000    	0.0200     	0.0000      	Open  ;
 PIPE_1417004    	NODE_1326141    	NODE_1317151    	8.9901      	100.0000    	0.0200     	0.0000      	Open  ;
 PIPE_1417014    	NODE_1338148    	NODE_1326142    	8.6034      	100.0000    	0.0200     	0.0000      	Open  ;
 PIPE_1417025    	NODE_1326143    	NODE_1317152    	11.6618     	100.0000    	0.0200     	0.0000      	Open  ;
 PIPE_1417035    	NODE_1326145    	NODE_1326146    	29.5267     	63.0000     	0.0200     	0.0000      	Open  ;
 PIPE_1417036    	NODE_1326146    	NODE_1343445    	30.4367     	63.0000     	0.0200     	0.0000      	Open  ;
 PIPE_1417039    	NODE_1326144    	NODE_1317153    	15.2033     	100.0000    	0.0200     	0.0000      	Open  ;
 PIPE_1417044    	NODE_1317153    	NODE_1326147    	11.0430     	100.0000    	0.0200     	0.0000      	Open  ;
 PIPE_1417049    	NODE_1326147    	NODE_1326148    	0.1423      	100.0000    	0.0200     	0.0000      	Open  ;
 PIPE_1417050    	NODE_1326148    	NODE_1343445    	21.2433     	100.0000    	0.0200     	0.0000      	Open  ;
 PIPE_1417055    	NODE_1326149    	NODE_1326144    	6.9574      	100.0000    	0.0200     	0.0000      	Open  ;
 PIPE_1417060    	NODE_1317152    	NODE_1317154    	2.6409      	100.0000    	0.0200     	0.0000      	Open  ;
 PIPE_1417061    	NODE_1317154    	NODE_1326149    	21.6566     	100.0000    	0.0200     	0.0000      	Open  ;
 PIPE_1417067    	NODE_1326150    	NODE_1326143    	7.0676      	100.0000    	0.0200     	0.0000      	Open  ;
 PIPE_1417072    	NODE_1326142    	NODE_1326151    	4.0777      	100.0000    	0.0200     	0.0000      	Open  ;
 PIPE_1417073    	NODE_1326151    	NODE_1326150    	17.0107     	100.0000    	0.0200     	0.0000      	Open  ;
 PIPE_1417079    	NODE_1317151    	NODE_1326152    	9.7705      	100.0000    	0.0200     	0.0000      	Open  ;
 PIPE_1417080    	NODE_1326152    	NODE_1338148    	2.8086      	100.0000    	0.0200     	0.0000      	Open  ;
 PIPE_1417885    	NODE_1326140    	NODE_1317155    	10.7585     	100.0000    	0.0200     	0.0000      	Open  ;
 PIPE_1417886    	NODE_1317155    	NODE_1326141    	2.1285      	100.0000    	0.0200     	0.0000      	Open  ;
 PIPE_1417893    	NODE_1328048    	NODE_1326139    	0.1177      	100.0000    	0.0200     	0.0000      	Open  ;
 PIPE_1417898    	NODE_1326153    	NODE_1328048    	14.5672     	100.0000    	0.0200     	0.0000      	Open  ;
 PIPE_1417913    	NODE_1337398    	NODE_1326155    	10.9439     	100.0000    	0.0200     	0.0000      	Open  ;
 PIPE_1417914    	NODE_1326155    	NODE_1326154    	1.7954      	100.0000    	0.0200     	0.0000      	Open  ;
 PIPE_1417920    	NODE_1327112    	NODE_1317897    	10.2593     	100.0000    	0.0200     	0.0000      	Open  ;
 PIPE_1417921    	NODE_1317897    	NODE_1337398    	11.0299     	100.0000    	0.0200     	0.0000      	Open  ;
 PIPE_1417927    	NODE_1337216    	NODE_1327112    	1.0177      	100.0000    	0.0200     	0.0000      	Open  ;
 PIPE_1417932    	NODE_1326156    	NODE_1337216    	17.0238     	100.0000    	0.0200     	0.0000      	Open  ;
 PIPE_1417937    	NODE_1326157    	NODE_1326156    	16.5947     	100.0000    	0.0200     	0.0000      	Open  ;
 PIPE_1417948    	NODE_1317898    	NODE_1326158    	34.2698     	100.0000    	0.0200     	0.0000      	Open  ;
 PIPE_1417955    	NODE_1326158    	NODE_1326159    	39.3301     	100.0000    	0.0200     	0.0000      	Open  ;
 PIPE_1417956    	NODE_1326159    	NODE_1326615    	24.1363     	100.0000    	0.0200     	0.0000      	Open  ;
 PIPE_1417968    	NODE_1326161    	NODE_1317899    	17.7726     	100.0000    	0.0200     	0.0000      	Open  ;
 PIPE_1417974    	NODE_1326162    	NODE_1326161    	16.7849     	100.0000    	0.0200     	0.0000      	Open  ;
 PIPE_1417979    	NODE_1327111    	NODE_1331223    	21.1156     	100.0000    	0.0200     	0.0000      	Open  ;
 PIPE_1417980    	NODE_1331223    	NODE_1326162    	8.6745      	100.0000    	0.0200     	0.0000      	Open  ;
 PIPE_1417991    	NODE_1343305    	NODE_1326163    	21.6635     	100.0000    	0.0200     	0.0000      	Open  ;
 PIPE_1417992    	NODE_1326163    	NODE_1317900    	17.7622     	100.0000    	0.0200     	0.0000      	Open  ;
 PIPE_1417997    	NODE_1337607    	NODE_1326164    	3.7276      	100.0000    	0.0200     	0.0000      	Open  ;
 PIPE_1418002    	NODE_1326164    	NODE_1322236    	23.8044     	100.0000    	0.0200     	0.0000      	Open  ;
 PIPE_1418008    	NODE_1322236    	NODE_1317901    	15.9088     	100.0000    	0.0200     	0.0000      	Open  ;
 PIPE_1418009    	NODE_1317901    	NODE_1326620    	14.9279     	100.0000    	0.0200     	0.0000      	Open  ;
 PIPE_1418015    	NODE_1326620    	NODE_1326165    	10.0316     	100.0000    	0.0200     	0.0000      	Open  ;
 PIPE_1418021    	NODE_1326165    	NODE_1326166    	18.4548     	100.0000    	0.0200     	0.0000      	Open  ;
 PIPE_1418027    	NODE_1326166    	NODE_1326167    	14.6859     	100.0000    	0.0200     	0.0000      	Open  ;
 PIPE_1418033    	NODE_1326167    	NODE_1317902    	16.6077     	100.0000    	0.0200     	0.0000      	Open  ;
 PIPE_1418034    	NODE_1317902    	NODE_1326618    	89.9304     	100.0000    	0.0200     	0.0000      	Open  ;
 PIPE_2849973    	NODE_1317150    	NODE_12325_1    	67.9458     	100.0000    	0.0200     	0.0000      	Open  ;
 PIPE_2849974    	NODE_12325      	NODE_1343446    	0.3000      	100.0000    	0.0200     	0.0000      	Open  ;
 PIPE_2849979    	NODE_1343446    	NODE_12326_1    	0.3000      	100.0000    	0.0200     	0.0000      	Open  ;
 PIPE_2849980    	NODE_12326      	NODE_1326153    	2.4494      	100.0000    	0.0200     	0.0000      	Open  ;
 PIPE_2849991    	NODE_1343305    	NODE_12319_1    	0.2915      	100.0000    	0.0200     	0.0000      	Open  ;
 PIPE_2849992    	NODE_12319      	NODE_1326157    	29.7040     	100.0000    	0.0200     	0.0000      	Open  ;
 PIPE_2849999    	NODE_1343305    	NODE_12320_1    	0.2915      	100.0000    	0.0200     	0.0000      	Open  ;
 PIPE_2850000    	NODE_12320      	NODE_1317898    	10.3510     	100.0000    	0.0200     	0.0000      	Open  ;
 PIPE_2850033    	NODE_1326618    	NODE_12315_1    	32.6500     	100.0000    	0.0200     	0.0000      	Open  ;
 PIPE_2850034    	NODE_12315      	NODE_3997424    	0.2984      	100.0000    	0.0200     	0.0000      	Open  ;
 PIPE_2850038    	NODE_1317899    	NODE_12316_1    	8.3580      	100.0000    	0.0200     	0.0000      	Open  ;
 PIPE_2850039    	NODE_12316      	NODE_3997424    	0.2984      	100.0000    	0.0200     	0.0000      	Open  ;
 PIPE_6269350    	NODE_1317900    	NODE_1326614    	18.9202     	100.0000    	0.0200     	0.0000      	Open  ;
 PIPE_6269351    	NODE_1326614    	NODE_1325499    	8.9822      	100.0000    	0.0200     	0.0000      	Open  ;
 PIPE_6269356    	NODE_1326154    	NODE_1317896    	3.9824      	100.0000    	0.0200     	0.0000      	Open  ;
 PIPE_6269357    	NODE_1317896    	NODE_1343446    	9.0704      	100.0000    	0.0200     	0.0000      	Open  ;

[PUMPS]
;ID             	Node1           	Node2           	Parameters

[VALVES]
;ID             	Node1           	Node2           	Diameter    	Type	Setting     	MinorLoss   
 VALVE_12316     	NODE_12316      	NODE_12316_1    	100.0000    	ISO 	0.0000      	0.0000      
 VALVE_12320     	NODE_12320      	NODE_12320_1    	100.0000    	ISO 	0.0000      	0.0000      
 VALVE_12326     	NODE_12326      	NODE_12326_1    	100.0000    	ISO 	0.0000      	0.0000      
 VALVE_12315     	NODE_12315      	NODE_12315_1    	100.0000    	ISO 	0.0000      	0.0000      
 VALVE_12319     	NODE_12319      	NODE_12319_1    	100.0000    	ISO 	0.0000      	0.0000      
 VALVE_12325     	NODE_12325      	NODE_12325_1    	100.0000    	ISO 	0.0000      	0.0000      

[TAGS]

[DEMANDS]
;Junction       	Demand      	Pattern         	Category

[STATUS]
;ID              	Status/Setting

[PATTERNS]
;ID             	Multipliers

[CURVES]
;ID             	X-Value     	Y-Value

[CONTROLS]

[RULES]

[ENERGY]

[EMITTERS]

[QUALITY]

[SOURCES]

[REACTIONS]

[MIXING]

[TIMES]

[REPORT]

[OPTIONS]
 Units              	LPS
 Headloss           	C-F
 Specific Gravity   	1.0
 Viscosity          	1.0
 Trials             	40
 Accuracy           	0.001
 CHECKFREQ          	2
 MAXCHECK           	10
 DAMPLIMIT          	0
 Unbalanced         	Continue 10
 Pattern            	1
 Demand Multiplier  	1.0
 Emitter Exponent   	0.5
 Quality            	Chlorine mg/L
 Diffusivity        	1.0
 Tolerance          	0.01

[COORDINATES]
;Node           	X-Coord         	Y-Coord
 NODE_1338984    	249011.4681     	481527.4065     
 NODE_1326165    	248803.9266     	481748.4915     
 NODE_1317899    	248928.8821     	481857.8862     
 NODE_1325947    	249075.7063     	481550.0165     
 NODE_1316528    	249165.6685     	481707.5957     
 NODE_1320890    	249180.3470     	481893.0039     
 NODE_1326154    	249102.6478     	481930.4789     
 NODE_1317147    	249132.2780     	481631.2553     
 NODE_1326139    	249110.8092     	481959.8083     
 NODE_1317901    	248789.5295     	481728.1028     
 NODE_1326162    	248963.1258     	481853.2398     
 NODE_1331223    	248971.7215     	481852.0735     
 NODE_1325948    	249039.3520     	481538.7794     
 NODE_1337216    	249091.1716     	481897.3650     
 NODE_1317148    	249180.4145     	481751.2679     
 NODE_1326151    	249122.5515     	482016.0982     
 NODE_1326164    	248765.5867     	481696.4308     
 NODE_1326161    	248946.4933     	481855.4966     
 NODE_1317896    	249103.9498     	481934.2425     
 NODE_1326166    	248814.5716     	481763.5668     
 NODE_1326145    	249086.7283     	482144.5715     
 NODE_1325669    	249187.2495     	481769.6215     
 NODE_1326155    	249102.0599     	481928.7825     
 NODE_1316527    	249198.9712     	481791.9344     
 NODE_1326153    	249107.5347     	481945.4995     
 NODE_1322231    	249193.6632     	481782.4856     
 NODE_1326141    	249115.2806     	481982.6366     
 NODE_1326144    	249138.7048     	482080.8345     
 NODE_1337607    	248763.2948     	481693.4911     
 NODE_1322235    	249055.9030     	481543.8953     
 NODE_1338148    	249119.5777     	482003.7706     
 NODE_1326158    	249045.9773     	481798.8540     
 NODE_1325950    	249120.0724     	481604.2898     
 NODE_1326147    	249140.3869     	482107.0199     
 NODE_1326152    	249118.9191     	482001.0403     
 NODE_1326167    	248823.0427     	481775.5633     
 NODE_1326135    	249184.6384     	481764.0370     
 NODE_1326143    	249129.0767     	482039.2379     
 NODE_1317149    	249209.6577     	481807.4691     
 NODE_1317152    	249133.1132     	482050.1788     
 NODE_1326138    	249207.8784     	481843.3144     
 NODE_1327111    	248992.6453     	481849.2344     
 NODE_1326136    	249191.8989     	481779.3450     
 NODE_1326148    	249140.3948     	482107.1620     
 NODE_1328048    	249110.7866     	481959.6928     
 NODE_1326163    	249044.7988     	481841.9156     
 NODE_1326159    	249029.5189     	481763.1374     
 NODE_1326149    	249137.8193     	482073.9337     
 NODE_1326140    	249112.8035     	481969.9899     
 NODE_1317146    	249090.8946     	481556.8155     
 NODE_1322236    	248780.2229     	481715.2039     
 NODE_1326133    	249147.5571     	481665.1571     
 NODE_1317900    	249027.2107     	481844.3963     
 NODE_1326142    	249121.5952     	482012.1341     
 NODE_1325946    	249111.8251     	481586.0690     
 NODE_1317150    	249167.1942     	481912.2565     
 NODE_1317898    	249061.1133     	481829.5694     
 NODE_1337398    	249098.4762     	481918.4420     
 NODE_1326132    	249141.4024     	481651.4366     
 NODE_1318801    	249011.5338     	481527.4345     
 NODE_1326619    	249177.2070     	481741.5714     
 NODE_1317151    	249117.0086     	481991.4590     
 NODE_1327112    	249091.5048     	481898.3266     
 NODE_1325673    	249122.3828     	481609.3940     
 NODE_1316529    	249138.7596     	481645.5752     
 NODE_1326620    	248798.1402     	481740.2970     
 NODE_1326617    	249098.3095     	481562.3039     
 NODE_1326137    	249206.3376     	481803.2271     
 NODE_1317153    	249139.7702     	482095.9941     
 NODE_1326157    	249078.7143     	481866.1485     
 NODE_1325671    	249152.7052     	481676.6337     
 NODE_1326618    	248887.6639     	481857.4853     
 NODE_1325670    	249159.5929     	481692.9770     
 NODE_1326615    	249018.9778     	481741.4246     
 NODE_1335972    	249027.7830     	481534.3445     
 NODE_1318802    	249164.6518     	481705.1495     
 NODE_1317155    	249114.8714     	481980.5478     
 NODE_1325951    	249127.3085     	481620.2763     
 NODE_1317897    	249094.8643     	481908.0202     
 NODE_1317154    	249134.0273     	482052.6565     
 NODE_1326614    	249008.4760     	481847.0388     
 NODE_1326150    	249126.6304     	482032.6072     
 NODE_1317902    	248832.6223     	481789.1296     
 NODE_1326134    	249168.2319     	481714.4393     
 NODE_1326156    	249085.0273     	481881.4955     
 NODE_1325672    	249146.8221     	481663.5186     
 NODE_1325499    	248999.5818     	481848.2933     
 NODE_1337394    	249018.9216     	481741.3087     
 NODE_1337215    	249181.7874     	481755.4181     
 NODE_1318486    	249147.6375     	482143.7651     
 NODE_1337609    	249181.1759     	481891.6693     
 NODE_1326146    	249115.2419     	482136.9036     
 NODE_1343305    	249066.2500     	481838.8900     
 NODE_12320      	249066.1000     	481838.6400     
 NODE_12320_1    	249068.1000     	481838.6400     
 NODE_12326      	249106.9242     	481943.1274     
 NODE_12326_1    	249108.9242     	481943.1274     
 NODE_12325      	249107.1370     	481942.7513     
 NODE_12325_1    	249109.1370     	481942.7513     
 NODE_1343448    	248919.5049     	481840.9127     
 NODE_12319      	249066.4000     	481839.1400     
 NODE_12319_1    	249068.4000     	481839.1400     
 NODE_12316      	248920.6000     	481859.0100     
 NODE_12316_1    	248922.6000     	481859.0100     
 NODE_3997424    	248920.3050     	481859.0550     
 NODE_1343445    	249144.3439     	482128.0067     
 NODE_1343446    	249106.8494     	481942.8369     
 NODE_12315      	248920.0100     	481859.1000     
 NODE_12315_1    	248922.0100     	481859.1000     
 PRESS_12667485  	248919.3229     	481839.9803     

[VERTICES]

[LABELS]

[BACKDROP]

[END]
