[TITLE]
Converted from Epanet to Staci, case name: fertoujlak.spr


[JUNCTIONS]
;ID              	Elev        	Demand      	Pattern         
 NODE_1329423    	113.3912    	0.001250    	                	;
 NODE_1336518    	113.5395    	0.000833    	                	;
 NODE_5812397    	115.1592    	0.000000    	                	;
 NODE_1328775    	114.6287    	0.001667    	                	;
 NODE_1329424    	113.3807    	0.001250    	                	;
 NODE_1337097    	113.1001    	0.001667    	                	;
 NODE_1330992    	114.1262    	0.001667    	                	;
 NODE_1321214    	114.4238    	0.002500    	                	;
 NODE_1328776    	114.7111    	0.005417    	                	;
 NODE_1329429    	113.8179    	0.000000    	                	;
 NODE_1320132    	113.9459    	0.000833    	                	;
 NODE_1328772    	116.5562    	0.000000    	                	;
 NODE_1329430    	113.9496    	0.000000    	                	;
 NODE_1328771    	115.3917    	0.004167    	                	;
 NODE_1316377    	114.7171    	0.002917    	                	;
 NODE_1321210    	113.3763    	0.004583    	                	;
 NODE_1329434    	115.2641    	0.000000    	                	;
 NODE_1329439    	113.9760    	0.003750    	                	;
 NODE_1329444    	112.4859    	0.000000    	                	;
 NODE_1336883    	115.2844    	0.001667    	                	;
 NODE_1331085    	116.8170    	0.000833    	                	;
 NODE_1331119    	114.4520    	0.002500    	                	;
 NODE_1329435    	113.5906    	0.001250    	                	;
 NODE_1329440    	115.1772    	0.000000    	                	;
 NODE_1317047    	115.1651    	0.000000    	                	;
 NODE_1336695    	115.1778    	0.000833    	                	;
 NODE_1329431    	114.6662    	0.005000    	                	;
 NODE_1338002    	113.6488    	0.002500    	                	;
 NODE_1329237    	114.6382    	0.006667    	                	;
 NODE_1316376    	116.2386    	0.000417    	                	;
 NODE_1329426    	113.5029    	0.000000    	                	;
 NODE_1338662    	114.7857    	0.009583    	                	;
 NODE_1329425    	113.4419    	0.000000    	                	;
 NODE_1321217    	113.8410    	0.004167    	                	;
 NODE_1338209    	114.3008    	0.000000    	                	;
 NODE_1316379    	114.7049    	0.001250    	                	;
 NODE_1329236    	114.6907    	0.000000    	                	;
 NODE_1321208    	113.3371    	0.002083    	                	;
 NODE_1336517    	113.8959    	0.000000    	                	;
 NODE_1336694    	113.5414    	0.001250    	                	;
 NODE_1328777    	114.9915    	0.000417    	                	;
 NODE_1338001    	114.8417    	0.003333    	                	;
 NODE_1339774    	114.3919    	0.021250    	                	;
 NODE_1320288    	116.6956    	0.000417    	                	;
 NODE_1320291    	113.4693    	0.002083    	                	;
 NODE_1329428    	113.3740    	0.001250    	                	;
 NODE_1329438    	113.5642    	0.003333    	                	;
 NODE_1329427    	113.8661    	0.002083    	                	;
 NODE_10826093   	115.1787    	0.000000    	                	;
 NODE_1321213    	113.8819    	0.000000    	                	;
 NODE_1329001    	114.2681    	0.002500    	                	;
 NODE_1322461    	113.5023    	0.000417    	                	;
 NODE_1329002    	114.6599    	0.002917    	                	;
 NODE_1316378    	115.1352    	0.000000    	                	;
 NODE_1328779    	115.0999    	0.000000    	                	;
 NODE_1328780    	115.0105    	0.002500    	                	;
 NODE_1329441    	115.1138    	0.002083    	                	;
 NODE_1328773    	116.7961    	0.001667    	                	;
 NODE_1321211    	114.3099    	0.000833    	                	;
 NODE_1331133    	113.6003    	0.002083    	                	;
 NODE_1321220    	115.1868    	0.000000    	                	;
 NODE_1321218    	115.4867    	0.000833    	                	;
 NODE_1335805    	113.9840    	0.000000    	                	;
 NODE_1328782    	114.7126    	0.004583    	                	;
 NODE_1316374    	115.2132    	0.000000    	                	;
 NODE_1321212    	113.8094    	0.010000    	                	;
 NODE_1331122    	113.7780    	0.000000    	                	;
 NODE_1335803    	114.8783    	0.000417    	                	;
 NODE_1337822    	115.0385    	0.004583    	                	;
 NODE_1329433    	115.2591    	0.001250    	                	;
 NODE_1338588    	115.0299    	0.000000    	                	;
 NODE_1329422    	113.5528    	0.000833    	                	;
 NODE_1329432    	115.1974    	0.000417    	                	;
 NODE_1338581    	115.9451    	0.004167    	                	;
 NODE_1338675    	113.6791    	0.000833    	                	;
 NODE_1319664    	114.9559    	0.000000    	                	;
 NODE_1331551    	114.7377    	0.007500    	                	;
 NODE_1329437    	113.6933    	0.000000    	                	;
 NODE_6631949    	116.2096    	0.000417    	                	;
 NODE_1336506    	114.7051    	0.000000    	                	;
 NODE_1337786    	114.4242    	0.002917    	                	;
 NODE_1320129    	114.4147    	0.000417    	                	;
 NODE_1316381    	114.4412    	0.005000    	                	;
 NODE_1330846    	114.4013    	0.000000    	                	;
 NODE_1329446    	113.9151    	0.002917    	                	;
 NODE_1328999    	114.4442    	0.002917    	                	;
 NODE_1329442    	113.9151    	0.000000    	                	;
 NODE_1329436    	113.5938    	0.002917    	                	;
 NODE_1329235    	114.7805    	0.003333    	                	;
 NODE_1321215    	115.3120    	0.000000    	                	;
 NODE_1328778    	115.0643    	0.002083    	                	;
 NODE_1316380    	114.8919    	0.003333    	                	;
 NODE_1329421    	114.6230    	0.000000    	                	;
 NODE_1331552    	114.7336    	0.000000    	                	;
 NODE_1321219    	113.4889    	0.000000    	                	;
 NODE_1331555    	114.0885    	0.000000    	                	;
 NODE_1329234    	114.8626    	0.000000    	                	;
 NODE_1329445    	114.4544    	0.000000    	                	;
 NODE_1329003    	114.8315    	0.000833    	                	;
 NODE_1329443    	112.9376    	0.000000    	                	;
 NODE_1328781    	114.7050    	0.000417    	                	;
 NODE_1329000    	114.3432    	0.005000    	                	;
 NODE_1338587    	116.2397    	0.000000    	                	;
 NODE_1346063    	114.7443    	0.000000    	                	;
 NODE_5812373    	114.4706    	0.000000    	                	;
 NODE_3992457    	113.7106    	0.000000    	                	;
 NODE_9955       	116.3761    	0.000000    	                	;
 NODE_9955_1     	116.3228    	0.000000    	                	;
 NODE_5812377    	115.1359    	0.000000    	                	;
 NODE_10312      	116.3865    	0.000000    	                	;
 NODE_10312_1    	116.3332    	0.000000    	                	;
 NODE_5812386    	114.4681    	0.000000    	                	;
 NODE_5812386_1  	114.5141    	0.000000    	                	;
 NODE_1346065    	116.3817    	0.000000    	                	;
 NODE_1346049    	114.4018    	0.000000    	                	;
 NODE_9949       	114.4015    	0.000000    	                	;
 NODE_9949_1     	114.4475    	0.000000    	                	;
 NODE_12514876   	114.5518    	0.000000    	                	;
 NODE_9953       	114.7448    	0.000000    	                	;
 NODE_9953_1     	114.7428    	0.000000    	                	;
 NODE_10149      	116.3771    	0.000000    	                	;
 NODE_10149_1    	116.3238    	0.000000    	                	;
 NODE_9947       	113.6961    	0.000000    	                	;
 NODE_9947_1     	113.6961    	0.000000    	                	;
 NODE_9948       	113.7123    	0.000000    	                	;
 NODE_9948_1     	113.6925    	0.000000    	                	;
 NODE_1346042    	115.4765    	0.000000    	                	;
 NODE_1346048    	113.6967    	0.000000    	                	;
 NODE_10320      	115.3406    	0.000000    	                	;
 NODE_10320_1    	115.4066    	0.000000    	                	;
 NODE_10316      	114.7453    	0.000000    	                	;
 NODE_10316_1    	114.7433    	0.000000    	                	;

[RESERVOIRS]
;ID              	Head        	Pattern         
 PRESS_12667492  	145.0625    	                

[TANKS]
;ID             	Elevation   	InitLevel   	MinLevel    	MaxLevel    	Diameter    	MinVol      	VolCurve

[PIPES]
;ID             	Node1           	Node2           	Length      	Diameter    	Roughness   	MinorLoss   	Status
 PIPE_578607     	NODE_1346048    	NODE_3992457    	3.6405      	125.0000    	0.0200     	0.0000      	Open  ;
 PIPE_1467297    	NODE_1346049    	NODE_1329439    	25.0148     	125.0000    	0.0200     	0.0000      	Open  ;
 PIPE_1467301    	NODE_1329439    	NODE_1321217    	7.8296      	125.0000    	0.0200     	0.0000      	Open  ;
 PIPE_1467311    	NODE_1329438    	NODE_1331133    	27.8157     	125.0000    	0.0200     	0.0000      	Open  ;
 PIPE_1467318    	NODE_1329437    	NODE_1346048    	7.6663      	125.0000    	0.0200     	0.0000      	Open  ;
 PIPE_1467322    	NODE_1331133    	NODE_1329436    	14.9586     	125.0000    	0.0200     	0.0000      	Open  ;
 PIPE_1467332    	NODE_1320132    	NODE_1329430    	1.1975      	125.0000    	0.0200     	0.0000      	Open  ;
 PIPE_1467337    	NODE_1329430    	NODE_1321213    	21.8408     	125.0000    	0.0200     	0.0000      	Open  ;
 PIPE_1467343    	NODE_1331122    	NODE_3992457    	9.6974      	125.0000    	0.0200     	0.0000      	Open  ;
 PIPE_1467354    	NODE_1329429    	NODE_1321212    	12.9379     	125.0000    	0.0200     	0.0000      	Open  ;
 PIPE_1467355    	NODE_1321212    	NODE_1331122    	10.0831     	125.0000    	0.0200     	0.0000      	Open  ;
 PIPE_1467375    	NODE_1329436    	NODE_1329435    	4.7990      	125.0000    	0.0200     	0.0000      	Open  ;
 PIPE_1467376    	NODE_1329435    	NODE_1329437    	30.9702     	125.0000    	0.0200     	0.0000      	Open  ;
 PIPE_1467381    	NODE_1329444    	NODE_1337097    	127.2412    	110.0000    	0.0200     	0.0000      	Open  ;
 PIPE_1467385    	NODE_1337097    	NODE_1329428    	23.8851     	110.0000    	0.0200     	0.0000      	Open  ;
 PIPE_1467390    	NODE_1329428    	NODE_1329427    	49.5206     	110.0000    	0.0200     	0.0000      	Open  ;
 PIPE_1467395    	NODE_1329427    	NODE_1321211    	52.3406     	110.0000    	0.0200     	0.0000      	Open  ;
 PIPE_1467405    	NODE_1320291    	NODE_1329426    	24.9361     	80.0000     	0.0200     	0.0000      	Open  ;
 PIPE_1467410    	NODE_1329425    	NODE_1320291    	20.4084     	80.0000     	0.0200     	0.0000      	Open  ;
 PIPE_1467415    	NODE_1321210    	NODE_1329425    	24.9643     	80.0000     	0.0200     	0.0000      	Open  ;
 PIPE_1467420    	NODE_1329424    	NODE_1321210    	19.6459     	80.0000     	0.0200     	0.0000      	Open  ;
 PIPE_1467426    	NODE_1329423    	NODE_1329424    	16.1941     	80.0000     	0.0200     	0.0000      	Open  ;
 PIPE_1467436    	NODE_1338675    	NODE_1329422    	82.8754     	80.0000     	0.0200     	0.0000      	Open  ;
 PIPE_1467441    	NODE_1338002    	NODE_1338675    	27.2009     	80.0000     	0.0200     	0.0000      	Open  ;
 PIPE_1467446    	NODE_1322461    	NODE_1338002    	24.3948     	80.0000     	0.0200     	0.0000      	Open  ;
 PIPE_1467450    	NODE_1329443    	NODE_1321208    	56.8897     	80.0000     	0.0200     	0.0000      	Open  ;
 PIPE_1467451    	NODE_1321208    	NODE_1322461    	37.2604     	80.0000     	0.0200     	0.0000      	Open  ;
 PIPE_1467460    	NODE_1329421    	NODE_1329237    	26.8323     	110.0000    	0.0200     	0.0000      	Open  ;
 PIPE_1467466    	NODE_1329237    	NODE_1329236    	54.9769     	110.0000    	0.0200     	0.0000      	Open  ;
 PIPE_1467476    	NODE_1329236    	NODE_1331552    	25.6813     	110.0000    	0.0200     	0.0000      	Open  ;
 PIPE_1467477    	NODE_1331552    	NODE_1331551    	1.3995      	110.0000    	0.0200     	0.0000      	Open  ;
 PIPE_1467482    	NODE_1331551    	NODE_1329235    	14.4926     	110.0000    	0.0200     	0.0000      	Open  ;
 PIPE_1467487    	NODE_1329235    	NODE_1329234    	36.2675     	110.0000    	0.0200     	0.0000      	Open  ;
 PIPE_1467492    	NODE_1329234    	NODE_1329003    	26.9090     	110.0000    	0.0200     	0.0000      	Open  ;
 PIPE_1467498    	NODE_1329003    	NODE_1329002    	24.8599     	110.0000    	0.0200     	0.0000      	Open  ;
 PIPE_1467504    	NODE_1329002    	NODE_1329001    	54.9471     	110.0000    	0.0200     	0.0000      	Open  ;
 PIPE_1467533    	NODE_1329001    	NODE_1330992    	19.9406     	110.0000    	0.0200     	0.0000      	Open  ;
 PIPE_1467534    	NODE_1330992    	NODE_1335805    	31.3383     	110.0000    	0.0200     	0.0000      	Open  ;
 PIPE_1467547    	NODE_1329000    	NODE_1316381    	22.5185     	125.0000    	0.0200     	0.0000      	Open  ;
 PIPE_1467552    	NODE_1316381    	NODE_1328999    	0.6814      	125.0000    	0.0200     	0.0000      	Open  ;
 PIPE_1467557    	NODE_1328999    	NODE_1331119    	1.7981      	125.0000    	0.0200     	0.0000      	Open  ;
 PIPE_1467558    	NODE_1331119    	NODE_1329445    	0.5418      	125.0000    	0.0200     	0.0000      	Open  ;
 PIPE_1467568    	NODE_1316380    	NODE_1328782    	26.3374     	125.0000    	0.0200     	0.0000      	Open  ;
 PIPE_1467584    	NODE_1330846    	NODE_1320129    	13.9813     	125.0000    	0.0200     	0.0000      	Open  ;
 PIPE_1467590    	NODE_1328781    	NODE_1316379    	3.4227      	125.0000    	0.0200     	0.0000      	Open  ;
 PIPE_1467591    	NODE_1316379    	NODE_1330846    	23.0385     	125.0000    	0.0200     	0.0000      	Open  ;
 PIPE_1467597    	NODE_1328780    	NODE_1316380    	17.9051     	125.0000    	0.0200     	0.0000      	Open  ;
 PIPE_1467606    	NODE_1328779    	NODE_1328778    	12.4484     	125.0000    	0.0200     	0.0000      	Open  ;
 PIPE_1467613    	NODE_1316378    	NODE_1328779    	23.5620     	125.0000    	0.0200     	0.0000      	Open  ;
 PIPE_1467618    	NODE_1328777    	NODE_1316378    	29.2600     	125.0000    	0.0200     	0.0000      	Open  ;
 PIPE_1467623    	NODE_1335803    	NODE_1328777    	22.6101     	125.0000    	0.0200     	0.0000      	Open  ;
 PIPE_1467628    	NODE_1338662    	NODE_1335803    	20.6168     	125.0000    	0.0200     	0.0000      	Open  ;
 PIPE_1467633    	NODE_1316377    	NODE_1346063    	15.8882     	125.0000    	0.0200     	0.0000      	Open  ;
 PIPE_1467637    	NODE_1328776    	NODE_1316377    	27.4863     	125.0000    	0.0200     	0.0000      	Open  ;
 PIPE_1467642    	NODE_1346042    	NODE_1328775    	62.3936     	125.0000    	0.0200     	0.0000      	Open  ;
 PIPE_1467643    	NODE_1328775    	NODE_1328776    	23.7895     	125.0000    	0.0200     	0.0000      	Open  ;
 PIPE_1467647    	NODE_1346042    	NODE_1338581    	23.5509     	125.0000    	0.0200     	0.0000      	Open  ;
 PIPE_1467698    	NODE_1331085    	NODE_1328773    	6.5496      	125.0000    	0.0200     	0.0000      	Open  ;
 PIPE_1467699    	NODE_1328773    	NODE_1320288    	9.1893      	125.0000    	0.0200     	0.0000      	Open  ;
 PIPE_1467704    	NODE_1320288    	NODE_1328772    	13.9755     	125.0000    	0.0200     	0.0000      	Open  ;
 PIPE_1467709    	NODE_1328772    	NODE_1328771    	74.0365     	125.0000    	0.0200     	0.0000      	Open  ;
 PIPE_1467714    	NODE_1328771    	NODE_1316374    	8.0653      	125.0000    	0.0200     	0.0000      	Open  ;
 PIPE_1467871    	NODE_10320_1    	NODE_1321215    	4.6311      	125.0000    	0.0200     	0.0000      	Open  ;
 PIPE_1467877    	NODE_1329434    	NODE_1329433    	1.9049      	125.0000    	0.0200     	0.0000      	Open  ;
 PIPE_1467882    	NODE_1329433    	NODE_1329432    	23.4828     	125.0000    	0.0200     	0.0000      	Open  ;
 PIPE_1467887    	NODE_1329432    	NODE_1329431    	52.8010     	125.0000    	0.0200     	0.0000      	Open  ;
 PIPE_1467892    	NODE_1329431    	NODE_1321214    	23.5666     	125.0000    	0.0200     	0.0000      	Open  ;
 PIPE_1467898    	NODE_1338209    	NODE_1331555    	23.7766     	125.0000    	0.0200     	0.0000      	Open  ;
 PIPE_1468312    	NODE_1329442    	NODE_1329446    	0.0542      	125.0000    	0.0200     	0.0000      	Open  ;
 PIPE_1468313    	NODE_1329446    	NODE_1320132    	18.6331     	125.0000    	0.0200     	0.0000      	Open  ;
 PIPE_1468318    	NODE_1321220    	NODE_1338001    	43.6336     	125.0000    	0.0200     	0.0000      	Open  ;
 PIPE_1468323    	NODE_1329422    	NODE_1321219    	13.1044     	80.0000     	0.0200     	0.0000      	Open  ;
 PIPE_1468324    	NODE_1321219    	NODE_1329423    	27.7511     	80.0000     	0.0200     	0.0000      	Open  ;
 PIPE_1486745    	NODE_1320129    	NODE_1337786    	9.8077      	125.0000    	0.0200     	0.0000      	Open  ;
 PIPE_1486746    	NODE_1337786    	NODE_1329000    	26.9053     	125.0000    	0.0200     	0.0000      	Open  ;
 PIPE_1486791    	NODE_1328778    	NODE_1338588    	12.0913     	125.0000    	0.0200     	0.0000      	Open  ;
 PIPE_1486792    	NODE_1338588    	NODE_1328780    	12.8751     	125.0000    	0.0200     	0.0000      	Open  ;
 PIPE_1486797    	NODE_1316376    	NODE_1338587    	0.0551      	125.0000    	0.0200     	0.0000      	Open  ;
 PIPE_1486806    	NODE_1329440    	NODE_1336695    	0.6149      	125.0000    	0.0200     	0.0000      	Open  ;
 PIPE_1486807    	NODE_1336695    	NODE_1321220    	8.4935      	125.0000    	0.0200     	0.0000      	Open  ;
 PIPE_1486813    	NODE_1336694    	NODE_1329438    	11.7502     	125.0000    	0.0200     	0.0000      	Open  ;
 PIPE_1486818    	NODE_1321217    	NODE_1336518    	33.5113     	125.0000    	0.0200     	0.0000      	Open  ;
 PIPE_1486819    	NODE_1336518    	NODE_1336694    	0.9980      	125.0000    	0.0200     	0.0000      	Open  ;
 PIPE_1486824    	NODE_1321213    	NODE_1336517    	6.1163      	125.0000    	0.0200     	0.0000      	Open  ;
 PIPE_1486825    	NODE_1336517    	NODE_1329429    	20.4803     	125.0000    	0.0200     	0.0000      	Open  ;
 PIPE_1486883    	NODE_1328782    	NODE_1336506    	20.1214     	125.0000    	0.0200     	0.0000      	Open  ;
 PIPE_1486884    	NODE_1336506    	NODE_1328781    	5.8225      	125.0000    	0.0200     	0.0000      	Open  ;
 PIPE_1487193    	NODE_1321215    	NODE_1336883    	4.4689      	125.0000    	0.0200     	0.0000      	Open  ;
 PIPE_1487194    	NODE_1336883    	NODE_1329434    	17.0418     	125.0000    	0.0200     	0.0000      	Open  ;
 PIPE_1487210    	NODE_1329441    	NODE_1317047    	29.8560     	125.0000    	0.0200     	0.0000      	Open  ;
 PIPE_1487211    	NODE_1317047    	NODE_1329440    	11.4916     	125.0000    	0.0200     	0.0000      	Open  ;
 PIPE_1487272    	NODE_1321214    	NODE_1339774    	6.3434      	125.0000    	0.0200     	0.0000      	Open  ;
 PIPE_1487273    	NODE_1339774    	NODE_1338209    	19.0545     	125.0000    	0.0200     	0.0000      	Open  ;
 PIPE_1487291    	NODE_1316374    	NODE_1337822    	7.8965      	125.0000    	0.0200     	0.0000      	Open  ;
 PIPE_1487292    	NODE_1337822    	NODE_1319664    	3.7325      	125.0000    	0.0200     	0.0000      	Open  ;
 PIPE_2865778    	NODE_1329426    	NODE_9947_1     	43.6280     	80.0000     	0.0200     	0.0000      	Open  ;
 PIPE_2865779    	NODE_9947       	NODE_1346048    	0.3255      	80.0000     	0.0200     	0.0000      	Open  ;
 PIPE_2865784    	NODE_1321211    	NODE_9948_1     	191.0816    	110.0000    	0.0200     	0.0000      	Open  ;
 PIPE_2865785    	NODE_9948       	NODE_3992457    	0.2064      	110.0000    	0.0200     	0.0000      	Open  ;
 PIPE_2865789    	NODE_1346049    	NODE_9949_1     	0.3003      	110.0000    	0.0200     	0.0000      	Open  ;
 PIPE_2865790    	NODE_9949       	NODE_1329421    	118.8406    	110.0000    	0.0200     	0.0000      	Open  ;
 PIPE_2865815    	NODE_1338001    	NODE_9953_1     	25.6849     	125.0000    	0.0200     	0.0000      	Open  ;
 PIPE_2865816    	NODE_9953       	NODE_1346063    	0.1405      	125.0000    	0.0200     	0.0000      	Open  ;
 PIPE_2865827    	NODE_12514876   	NODE_9955_1     	56.3893     	125.0000    	0.0200     	0.0000      	Open  ;
 PIPE_2865828    	NODE_9955       	NODE_1346065    	0.2436      	125.0000    	0.0200     	0.0000      	Open  ;
 PIPE_2866169    	NODE_1346063    	NODE_10316_1    	0.1877      	125.0000    	0.0200     	0.0000      	Open  ;
 PIPE_2866170    	NODE_10316      	NODE_1338662    	8.1869      	125.0000    	0.0200     	0.0000      	Open  ;
 PIPE_2866194    	NODE_1346065    	NODE_10312_1    	0.3074      	125.0000    	0.0200     	0.0000      	Open  ;
 PIPE_2866195    	NODE_10312      	NODE_1331085    	29.7701     	125.0000    	0.0200     	0.0000      	Open  ;
 PIPE_2866200    	NODE_1338587    	NODE_10149_1    	7.4485      	125.0000    	0.0200     	0.0000      	Open  ;
 PIPE_2866201    	NODE_10149      	NODE_1346065    	0.2855      	125.0000    	0.0200     	0.0000      	Open  ;
 PIPE_5812374    	NODE_1346049    	NODE_5812373    	2.7798      	125.0000    	0.0200     	0.0000      	Open  ;
 PIPE_5812375    	NODE_5812373    	NODE_1329441    	55.1227     	125.0000    	0.0200     	0.0000      	Open  ;
 PIPE_5812387    	NODE_5812373    	NODE_5812386_1  	0.3138      	110.0000    	0.0200     	0.0000      	Open  ;
 PIPE_5812398    	NODE_5812386    	NODE_5812397    	104.6473    	110.0000    	0.0200     	0.0000      	Open  ;
 PIPE_5812399    	NODE_5812397    	NODE_5812377    	10.5505     	110.0000    	0.0200     	0.0000      	Open  ;
 PIPE_5812412    	NODE_10320      	NODE_1321218    	38.4312     	125.0000    	0.0200     	0.0000      	Open  ;
 PIPE_6631951    	NODE_1338581    	NODE_6631949    	19.1883     	125.0000    	0.0200     	0.0000      	Open  ;
 PIPE_6631952    	NODE_6631949    	NODE_1316376    	1.5732      	125.0000    	0.0200     	0.0000      	Open  ;
 PIPE_10826094   	NODE_1321218    	NODE_10826093   	34.1371     	125.0000    	0.0200     	0.0000      	Open  ;
 PIPE_10826095   	NODE_10826093   	NODE_5812377    	11.5928     	125.0000    	0.0200     	0.0000      	Open  ;
 PIPE_12514872   	PRESS_12667492  	NODE_12514876   	3.9103      	125.0000    	0.0200     	0.0000      	Open  ;

[PUMPS]
;ID             	Node1           	Node2           	Parameters

[VALVES]
;ID             	Node1           	Node2           	Diameter    	Type	Setting     	MinorLoss   
 VALVE_10149     	NODE_10149      	NODE_10149_1    	100.0000    	ISO 	0.0000      	0.0000      
 VALVE_10312     	NODE_10312      	NODE_10312_1    	100.0000    	ISO 	0.0000      	0.0000      
 VALVE_5812386   	NODE_5812386    	NODE_5812386_1  	100.0000    	ISO 	0.0000      	0.0000      
 VALVE_9948      	NODE_9948       	NODE_9948_1     	100.0000    	ISO 	0.0000      	0.0000      
 VALVE_9949      	NODE_9949       	NODE_9949_1     	100.0000    	ISO 	0.0000      	0.0000      
 VALVE_10320     	NODE_10320      	NODE_10320_1    	100.0000    	ISO 	0.0000      	0.0000      
 VALVE_9947      	NODE_9947       	NODE_9947_1     	100.0000    	ISO 	0.0000      	0.0000      
 VALVE_9953      	NODE_9953       	NODE_9953_1     	100.0000    	ISO 	0.0000      	0.0000      
 VALVE_10316     	NODE_10316      	NODE_10316_1    	100.0000    	ISO 	0.0000      	0.0000      
 VALVE_9955      	NODE_9955       	NODE_9955_1     	100.0000    	ISO 	0.0000      	0.0000      

[TAGS]

[DEMANDS]
;Junction       	Demand      	Pattern         	Category

[STATUS]
;ID              	Status/Setting

[PATTERNS]
;ID             	Multipliers

[CURVES]
;ID             	X-Value     	Y-Value

[CONTROLS]

[RULES]

[ENERGY]

[EMITTERS]

[QUALITY]

[SOURCES]

[REACTIONS]

[MIXING]

[TIMES]

[REPORT]

[OPTIONS]
 Units              	LPS
 Headloss           	C-F
 Specific Gravity   	1.0
 Viscosity          	1.0
 Trials             	40
 Accuracy           	0.001
 CHECKFREQ          	2
 MAXCHECK           	10
 DAMPLIMIT          	0
 Unbalanced         	Continue 10
 Pattern            	1
 Demand Multiplier  	1.0
 Emitter Exponent   	0.5
 Quality            	Chlorine mg/L
 Diffusivity        	1.0
 Tolerance          	0.01

[COORDINATES]
;Node           	X-Coord         	Y-Coord
 NODE_1329423    	263261.2638     	484910.5620     
 NODE_1336518    	263257.8331     	484731.9943     
 NODE_5812397    	263274.9140     	484596.5790     
 NODE_1328775    	263443.5049     	484586.8302     
 NODE_1329424    	263252.0346     	484897.2551     
 NODE_1337097    	263034.8694     	484505.4161     
 NODE_1330992    	263463.4249     	485071.4297     
 NODE_1321214    	263188.1895     	484396.8871     
 NODE_1328776    	263453.3981     	484608.4651     
 NODE_1329429    	263145.5926     	484807.5768     
 NODE_1320132    	263104.4718     	484835.3744     
 NODE_1328772    	263371.2092     	484428.2589     
 NODE_1329430    	263105.4639     	484834.7037     
 NODE_1328771    	263340.9283     	484360.6981     
 NODE_1316377    	263464.8287     	484633.4619     
 NODE_1321210    	263240.8383     	484881.1119     
 NODE_1329434    	263227.1963     	484490.8685     
 NODE_1329439    	263292.1371     	484708.9224     
 NODE_1329444    	262988.2273     	484387.0346     
 NODE_1336883    	263233.7607     	484506.5952     
 NODE_1331085    	263383.4385     	484455.3401     
 NODE_1331119    	263600.8770     	484934.1791     
 NODE_1329435    	263207.7794     	484765.6590     
 NODE_1329440    	263397.7198     	484675.0876     
 NODE_1317047    	263386.9976     	484679.2219     
 NODE_1336695    	263398.2935     	484674.8664     
 NODE_1329431    	263197.1265     	484418.6934     
 NODE_1338002    	263346.1179     	485035.3765     
 NODE_1329237    	263366.8912     	484830.5809     
 NODE_1316376    	263398.8357     	484489.9285     
 NODE_1329426    	263200.7689     	484823.3385     
 NODE_1338662    	263474.9121     	484655.5301     
 NODE_1329425    	263226.6110     	484860.5985     
 NODE_1321217    	263285.6402     	484713.2920     
 NODE_1338209    	263178.5579     	484373.3863     
 NODE_1316379    	263559.7513     	484844.4215     
 NODE_1329236    	263387.3219     	484881.6205     
 NODE_1321208    	263379.6479     	485087.1157     
 NODE_1336517    	263128.6254     	484819.0466     
 NODE_1336694    	263257.0050     	484732.5512     
 NODE_1328777    	263492.8549     	484694.8572     
 NODE_1338001    	263447.1876     	484656.7971     
 NODE_1339774    	263185.7839     	484391.0175     
 NODE_1320288    	263376.9610     	484440.9959     
 NODE_1320291    	263214.9801     	484843.8287     
 NODE_1329428    	263043.5693     	484527.6564     
 NODE_1329438    	263247.2549     	484739.1089     
 NODE_1329427    	263062.5719     	484573.3860     
 NODE_10826093   	263264.1113     	484582.4087     
 NODE_1321213    	263123.5583     	484822.4720     
 NODE_1329001    	263455.9986     	485052.9235     
 NODE_1322461    	263359.3538     	485055.8684     
 NODE_1329002    	263435.5353     	485001.9291     
 NODE_1316378    	263505.0002     	484721.4775     
 NODE_1328779    	263514.6324     	484742.9804     
 NODE_1328780    	263529.7728     	484777.1948     
 NODE_1329441    	263359.1407     	484689.9632     
 NODE_1328773    	263380.7429     	484449.3709     
 NODE_1321211    	263081.5793     	484622.1475     
 NODE_1331133    	263224.1739     	484754.6325     
 NODE_1321220    	263406.2182     	484671.8107     
 NODE_1321218    	263251.8434     	484550.5522     
 NODE_1335805    	263475.0958     	485100.5137     
 NODE_1328782    	263547.6762     	484817.6530     
 NODE_1316374    	263337.6315     	484353.3374     
 NODE_1321212    	263156.3112     	484800.3311     
 NODE_1331122    	263164.6647     	484794.6841     
 NODE_1335803    	263483.4698     	484674.2869     
 NODE_1337822    	263334.4036     	484346.1308     
 NODE_1329433    	263226.4625     	484489.1106     
 NODE_1338588    	263524.5627     	484765.4210     
 NODE_1329422    	263284.4565     	484944.1959     
 NODE_1329432    	263217.4170     	484467.4399     
 NODE_1338581    	263407.8326     	484508.6393     
 NODE_1338675    	263331.0928     	485012.7043     
 NODE_1319664    	263332.8778     	484342.7243     
 NODE_1331551    	263397.3922     	484906.7593     
 NODE_1329437    	263182.0809     	484782.9430     
 NODE_6631949    	263399.5174     	484491.3463     
 NODE_1336506    	263555.9002     	484836.0166     
 NODE_1337786    	263579.2570     	484886.9931     
 NODE_1320129    	263575.1717     	484878.0768     
 NODE_1316381    	263599.8442     	484931.9250     
 NODE_1330846    	263569.3478     	484865.3661     
 NODE_1329446    	263088.9795     	484845.7272     
 NODE_1328999    	263600.1280     	484932.5445     
 NODE_1329442    	263088.9344     	484845.7573     
 NODE_1329436    	263211.7615     	484762.9807     
 NODE_1329235    	263402.7815     	484920.2126     
 NODE_1321215    	263235.4821     	484510.7192     
 NODE_1328778    	263519.6698     	484754.3639     
 NODE_1316380    	263537.0184     	484793.5684     
 NODE_1329421    	263356.9656     	484805.6519     
 NODE_1331552    	263396.8718     	484905.4601     
 NODE_1321219    	263277.0793     	484933.3653     
 NODE_1331555    	263169.5412     	484351.3858     
 NODE_1329234    	263416.2681     	484953.8792     
 NODE_1329445    	263601.1027     	484934.6717     
 NODE_1329003    	263426.2770     	484978.8575     
 NODE_1329443    	263411.8940     	485133.9838     
 NODE_1328781    	263558.3256     	484841.3099     
 NODE_1329000    	263590.4642     	484911.4531     
 NODE_1338587    	263398.8118     	484489.8788     
 NODE_1346063    	263471.4360     	484647.9110     
 NODE_5812373    	263315.2005     	484693.4106     
 NODE_3992457    	263172.6987     	484789.2532     
 NODE_9955       	263395.7220     	484482.8170     
 NODE_9955_1     	263397.7220     	484482.8170     
 NODE_5812377    	263268.2774     	484593.2271     
 NODE_10312      	263395.3920     	484482.6050     