[TITLE]
Converted from Epanet to Staci, case name: ferto2.spr


[JUNCTIONS]
;ID              	Elev        	Demand      	Pattern         
 NODE_5814814    	129.6573    	0.000000    	                	;
 NODE_1342506    	124.5462    	0.001667    	                	;
 NODE_1321516    	129.7783    	0.000000    	                	;
 NODE_1341151    	122.2922    	0.000000    	                	;
 NODE_1342401    	116.1293    	0.000000    	                	;
 NODE_1342941    	147.9238    	0.000000    	                	;
 NODE_1319016    	128.8635    	0.000000    	                	;
 NODE_1341004    	130.5685    	0.000000    	                	;
 NODE_1340853    	127.1838    	0.000000    	                	;
 NODE_1332443    	127.4991    	0.006250    	                	;
 NODE_1321049    	125.7458    	0.000833    	                	;
 NODE_1331205    	128.5195    	0.000000    	                	;
 NODE_1334340    	129.7914    	0.000000    	                	;
 NODE_1333342    	124.2855    	0.000000    	                	;
 NODE_1338718    	124.5465    	0.002500    	                	;
 NODE_1333911    	121.2333    	0.000000    	                	;
 NODE_1338085    	119.2355    	0.000000    	                	;
 NODE_1334593    	120.0190    	0.000833    	                	;
 NODE_1332428    	128.7661    	0.000000    	                	;
 NODE_1335286    	131.7839    	0.000000    	                	;
 NODE_7687402    	126.3230    	0.022500    	                	;
 NODE_10367669   	125.5603    	0.000000    	                	;
 NODE_5815098    	127.7144    	0.000000    	                	;
 NODE_5814981    	129.4317    	0.000000    	                	;
 NODE_1321825    	123.6222    	0.000000    	                	;
 NODE_1321824    	124.3461    	0.000000    	                	;
 NODE_1321764    	123.6289    	0.002917    	                	;
 NODE_1322850    	130.3205    	0.000000    	                	;
 NODE_1330144    	127.0862    	0.000000    	                	;
 NODE_1330147    	125.6199    	0.000000    	                	;
 NODE_1329190    	124.3672    	0.016667    	                	;
 NODE_1330178    	127.5410    	0.000000    	                	;
 NODE_1322680    	125.0295    	0.000000    	                	;
 NODE_1337970    	126.7379    	0.000000    	                	;
 NODE_1331387    	117.5857    	0.000000    	                	;
 NODE_1335634    	125.2445    	0.000000    	                	;
 NODE_1323133    	125.0298    	0.000000    	                	;
 NODE_1328191    	123.3979    	0.001667    	                	;
 NODE_1320033    	124.7068    	0.004167    	                	;
 NODE_1328222    	124.5848    	0.000833    	                	;
 NODE_1328230    	126.3419    	0.000833    	                	;
 NODE_1328231    	125.3575    	0.007500    	                	;
 NODE_1322485    	124.9678    	0.005833    	                	;
 NODE_1328715    	124.8812    	0.005000    	                	;
 NODE_1328720    	124.3459    	0.006667    	                	;
 NODE_1321397    	122.0453    	0.000417    	                	;
 NODE_1328943    	121.0718    	0.006250    	                	;
 NODE_1323038    	120.2365    	0.000000    	                	;
 NODE_1329361    	121.8310    	0.002917    	                	;
 NODE_1342716    	118.8861    	0.000000    	                	;
 NODE_1339065    	118.1383    	0.000000    	                	;
 NODE_1342348    	127.4065    	0.005417    	                	;
 NODE_1322546    	138.4765    	0.000833    	                	;
 NODE_1342868    	137.9998    	0.000000    	                	;
 NODE_1342872    	135.1926    	0.002500    	                	;
 NODE_1342895    	133.6976    	0.005000    	                	;
 NODE_1342180    	136.7247    	0.006250    	                	;
 NODE_1340929    	126.8840    	0.003750    	                	;
 NODE_1340932    	125.8017    	0.000000    	                	;
 NODE_1331376    	129.5201    	0.000000    	                	;
 NODE_1340205    	129.0397    	0.019167    	                	;
 NODE_1336629    	128.2122    	0.000000    	                	;
 NODE_1340222    	127.4041    	0.000000    	                	;
 NODE_1321048    	126.4071    	0.000000    	                	;
 NODE_1340244    	127.8543    	0.000000    	                	;
 NODE_1340919    	127.7470    	0.000000    	                	;
 NODE_1336868    	126.6137    	0.060000    	                	;
 NODE_1335103    	119.8821    	0.005417    	                	;
 NODE_1327514    	123.7005    	0.005833    	                	;
 NODE_1317399    	120.5891    	0.000417    	                	;
 NODE_1316474    	123.3296    	0.006250    	                	;
 NODE_1334383    	123.0623    	0.001667    	                	;
 NODE_1334584    	124.5451    	0.002083    	                	;
 NODE_1315485    	120.5554    	0.003750    	                	;
 NODE_1337374    	119.3487    	0.000000    	                	;
 NODE_1318267    	129.1406    	0.003750    	                	;
 NODE_1333080    	124.9975    	0.001250    	                	;
 NODE_1332172    	125.0832    	0.001667    	                	;
 NODE_1333394    	119.9601    	0.011667    	                	;
 NODE_1332678    	123.8605    	0.002083    	                	;
 NODE_1332712    	140.9703    	0.000000    	                	;
 NODE_1338535    	125.8670    	0.000417    	                	;
 NODE_1335291    	137.3416    	0.000417    	                	;
 NODE_1332345    	130.8835    	0.001250    	                	;
 NODE_1338806    	137.3584    	0.000417    	                	;
 NODE_1328177    	126.3226    	0.004583    	                	;
 NODE_1319917    	138.5017    	0.000000    	                	;
 NODE_1333398    	123.0141    	0.004583    	                	;
 NODE_1333174    	121.0968    	0.000000    	                	;
 NODE_1335765    	123.8948    	0.000833    	                	;
 NODE_1340603    	136.3735    	0.006667    	                	;
 NODE_1340592    	132.3675    	0.000833    	                	;
 NODE_1334103    	120.5390    	0.000000    	                	;
 NODE_1315972    	118.2193    	0.004583    	                	;
 NODE_1334115    	118.6259    	0.008333    	                	;
 NODE_1334590    	118.3387    	0.001667    	                	;
 NODE_1316493    	119.5889    	0.000000    	                	;
 NODE_1316964    	121.6015    	0.000417    	                	;
 NODE_1331968    	121.2135    	0.000000    	                	;
 NODE_1332883    	125.3095    	0.004583    	                	;
 NODE_1323072    	124.2360    	0.003333    	                	;
 NODE_1315600    	126.0940    	0.001667    	                	;
 NODE_1333347    	126.5649    	0.002500    	                	;
 NODE_1333349    	128.8810    	0.000833    	                	;
 NODE_1315607    	127.2599    	0.008750    	                	;
 NODE_1313721    	129.8994    	0.001250    	                	;
 NODE_1313736    	126.6633    	0.004167    	                	;
 NODE_1319905    	123.1089    	0.004583    	                	;
 NODE_1334039    	126.0765    	0.001250    	                	;
 NODE_1320459    	124.7597    	0.000000    	                	;
 NODE_1334050    	123.4231    	0.000000    	                	;
 NODE_1334547    	126.0938    	0.012083    	                	;
 NODE_1335071    	122.6971    	0.000000    	                	;
 NODE_1335078    	122.1226    	0.001667    	                	;
 NODE_1342694    	130.7502    	0.006250    	                	;
 NODE_1342046    	127.7932    	0.000000    	                	;
 NODE_1336453    	130.8935    	0.000000    	                	;
 NODE_1328156    	131.2503    	0.000000    	                	;
 NODE_1320697    	127.9416    	0.000000    	                	;
 NODE_1330486    	127.5320    	0.000000    	                	;
 NODE_1320306    	132.0145    	0.011667    	                	;
 NODE_1339882    	127.9947    	0.000000    	                	;
 NODE_1318750    	127.7473    	0.002917    	                	;
 NODE_1316114    	125.3933    	0.003750    	                	;
 NODE_1340637    	128.8160    	0.000833    	                	;
 NODE_1327400    	124.9943    	0.000000    	                	;
 NODE_1332081    	129.0291    	0.004167    	                	;
 NODE_1341985    	123.6433    	0.000000    	                	;
 NODE_1332890    	127.0220    	0.004583    	                	;
 NODE_1341668    	117.7087    	0.003750    	                	;
 NODE_1341669    	116.7680    	0.005000    	                	;
 NODE_1341831    	125.4884    	0.000000    	                	;
 NODE_1322677    	125.3293    	0.000000    	                	;
 NODE_1322681    	124.2054    	0.000000    	                	;
 NODE_1336438    	138.2741    	0.000000    	                	;
 NODE_1341963    	123.1801    	0.012917    	                	;
 NODE_1322478    	124.3174    	0.002917    	                	;
 NODE_1328226    	124.6073    	0.000833    	                	;
 NODE_1342207    	119.2988    	0.000000    	                	;
 NODE_1341455    	124.7826    	0.002917    	                	;
 NODE_1318240    	124.5087    	0.010833    	                	;
 NODE_1331944    	121.0784    	0.002500    	                	;
 NODE_1317357    	127.7592    	0.000000    	                	;
 NODE_1318249    	125.0961    	0.000000    	                	;
 NODE_1332892    	128.5618    	0.001250    	                	;
 NODE_1323078    	124.0893    	0.002500    	                	;
 NODE_1332437    	128.5232    	0.000000    	                	;
 NODE_1334824    	128.7696    	0.001250    	                	;
 NODE_1315883    	128.6403    	0.000000    	                	;
 NODE_1337913    	124.9366    	0.001667    	                	;
 NODE_1327623    	127.5595    	0.000000    	                	;
 NODE_1332082    	129.0827    	0.009167    	                	;
 NODE_1342493    	122.6782    	0.000000    	                	;
 NODE_1332233    	136.4698    	0.000000    	                	;
 NODE_6285348    	124.4445    	0.000417    	                	;
 NODE_1329663    	124.4765    	0.077917    	                	;
 NODE_1329193    	124.9746    	0.000000    	                	;
 NODE_1341843    	124.2642    	0.006250    	                	;
 NODE_1335633    	125.3922    	0.000000    	                	;
 NODE_1328211    	124.3163    	0.000000    	                	;
 NODE_1322540    	126.2197    	0.002917    	                	;
 NODE_1336929    	125.9419    	0.000000    	                	;
 NODE_1337749    	129.3453    	0.001250    	                	;
 NODE_1336866    	128.2441    	0.000000    	                	;
 NODE_1338064    	125.0402    	0.006250    	                	;
 NODE_1334542    	126.2293    	0.006250    	                	;
 NODE_1315885    	131.1310    	0.000000    	                	;
 NODE_1335070    	133.8433    	0.001250    	                	;
 NODE_1333831    	127.6066    	0.000417    	                	;
 NODE_1320210    	126.8220    	0.000000    	                	;
 NODE_1332642    	127.2638    	0.000000    	                	;
 NODE_1321998    	124.5568    	0.000417    	                	;
 NODE_1340568    	119.7648    	0.000000    	                	;
 NODE_1331722    	121.8414    	0.001667    	                	;
 NODE_10367683   	125.6036    	0.000000    	                	;
 NODE_1342424    	125.4050    	0.003333    	                	;
 NODE_1342194    	117.1084    	0.003750    	                	;
 NODE_1341650    	140.6951    	0.004583    	                	;
 NODE_1341131    	123.8794    	0.000000    	                	;
 NODE_1322327    	126.8879    	0.002500    	                	;
 NODE_1329680    	123.3570    	0.000000    	                	;
 NODE_1330175    	135.5829    	0.000000    	                	;
 NODE_1330176    	126.9645    	0.000000    	                	;
 NODE_1322657    	132.7799    	0.000000    	                	;
 NODE_1322662    	135.6862    	0.000000    	                	;
 NODE_1339905    	121.7792    	0.000000    	                	;
 NODE_1340454    	134.3151    	0.000000    	                	;
 NODE_1322481    	125.0065    	0.003333    	                	;
 NODE_1330794    	125.2742    	0.005833    	                	;
 NODE_1328717    	124.5935    	0.004583    	                	;
 NODE_1321313    	120.7756    	0.000000    	                	;
 NODE_1339053    	119.7439    	0.001250    	                	;
 NODE_1333303    	130.4233    	0.001667    	                	;
 NODE_1322548    	138.6029    	0.000000    	                	;
 NODE_1339640    	137.0281    	0.000000    	                	;
 NODE_1321738    	131.4467    	0.000000    	                	;
 NODE_1321173    	128.7271    	0.002500    	                	;
 NODE_1335763    	139.4806    	0.004583    	                	;
 NODE_1335098    	121.3348    	0.000000    	                	;
 NODE_1335113    	121.2086    	0.000000    	                	;
 NODE_1322001    	126.0063    	0.003333    	                	;
 NODE_1333101    	129.4005    	0.005000    	                	;
 NODE_1333090    	128.5558    	0.003333    	                	;
 NODE_1332688    	123.0851    	0.004167    	                	;
 NODE_1332675    	123.7373    	0.006667    	                	;
 NODE_1332342    	131.8004    	0.000000    	                	;
 NODE_1340607    	138.1691    	0.002500    	                	;
 NODE_1331731    	126.5421    	0.000833    	                	;
 NODE_1328180    	126.2169    	0.010417    	                	;
 NODE_1337551    	119.4689    	0.004583    	                	;
 NODE_1335117    	118.9527    	0.005833    	                	;
 NODE_1335310    	121.2729    	0.000833    	                	;
 NODE_1315793    	122.7755    	0.002917    	                	;
 NODE_1315606    	126.1054    	0.000000    	                	;
 NODE_1338264    	128.5650    	0.007500    	                	;
 NODE_1313722    	129.1371    	0.003750    	                	;
 NODE_1313723    	128.6740    	0.003750    	                	;
 NODE_1333538    	125.4876    	0.004583    	                	;
 NODE_1333542    	128.1155    	0.004583    	                	;
 NODE_1316948    	122.0716    	0.000000    	                	;
 NODE_1329530    	128.0654    	0.000000    	                	;
 NODE_1337541    	134.3620    	0.000000    	                	;
 NODE_1332075    	129.0069    	0.002917    	                	;
 NODE_1327402    	124.9828    	0.000000    	                	;
 NODE_1320935    	127.9200    	0.000833    	                	;
 NODE_8585792    	132.9393    	0.000000    	                	;
 NODE_1318084    	124.3733    	0.591667    	                	;
 NODE_1330430    	138.0264    	0.000000    	                	;
 NODE_1333893    	120.6021    	0.001667    	                	;
 NODE_1332169    	124.7142    	0.002917    	                	;
 NODE_1342043    	125.1629    	0.000000    	                	;
 NODE_1337758    	126.7536    	0.000000    	                	;
 NODE_1333331    	128.6745    	0.000417    	                	;
 NODE_1340638    	128.7093    	0.000000    	                	;
 NODE_1333426    	118.8153    	0.005833    	                	;
 NODE_1334596    	119.3260    	0.000417    	                	;
 NODE_1320022    	138.7758    	0.000000    	                	;
 NODE_1329362    	121.7983    	0.000000    	                	;
 NODE_1336708    	122.7610    	0.000000    	                	;
 NODE_1315837    	124.9231    	0.003333    	                	;
 NODE_1332190    	126.0648    	0.002083    	                	;
 NODE_1318746    	130.0737    	0.001667    	                	;
 NODE_1341089    	125.5878    	0.000000    	                	;
 NODE_1335792    	119.1651    	0.002500    	                	;
 NODE_1340361    	127.4744    	0.002917    	                	;
 NODE_1331479    	135.5441    	0.000000    	                	;
 NODE_1332461    	123.5247    	0.000000    	                	;
 NODE_1338293    	135.3545    	0.000000    	                	;
 NODE_1332671    	123.4972    	0.003750    	                	;
 NODE_1332237    	129.4844    	0.000000    	                	;
 NODE_1322856    	128.5702    	0.000000    	                	;
 NODE_1330183    	127.2178    	0.000833    	                	;
 NODE_1329653    	127.5634    	0.000000    	                	;
 NODE_1320952    	123.6724    	0.000000    	                	;
 NODE_1319254    	127.0375    	0.001250    	                	;
 NODE_1319339    	122.6532    	0.000000    	                	;
 NODE_1329147    	125.9567    	0.002083    	                	;
 NODE_1328951    	121.3751    	0.005000    	                	;
 NODE_1322469    	125.3404    	0.001250    	                	;
 NODE_1341984    	121.7034    	0.000000    	                	;
 NODE_1342709    	118.8457    	0.000000    	                	;
 NODE_1342515    	119.0832    	0.000000    	                	;
 NODE_1332844    	129.0121    	0.000417    	                	;
 NODE_1342355    	125.0291    	0.004583    	                	;
 NODE_1331903    	129.4077    	0.000000    	                	;
 NODE_1331937    	120.6984    	0.000417    	                	;
 NODE_1332704    	135.0927    	0.000000    	                	;
 NODE_1332360    	124.2725    	0.002500    	                	;
 NODE_1340612    	140.2998    	0.003333    	                	;
 NODE_1319914    	134.3529    	0.000000    	                	;
 NODE_1334087    	119.0906    	0.000833    	                	;
 NODE_1332874    	126.1618    	0.005000    	                	;
 NODE_1323077    	124.1736    	0.001667    	                	;
 NODE_1340368    	122.8620    	0.006250    	                	;
 NODE_1333533    	125.9099    	0.004583    	                	;
 NODE_1334038    	126.0847    	0.000833    	                	;
 NODE_1341023    	125.3972    	0.002917    	                	;
 NODE_1330469    	134.6785    	0.000000    	                	;
 NODE_1322945    	136.6751    	0.000000    	                	;
 NODE_1329982    	136.5168    	0.000000    	                	;
 NODE_1319547    	136.7520    	0.000000    	                	;
 NODE_1329526    	130.1277    	0.000000    	                	;
 NODE_1340326    	128.5103    	0.000833    	                	;
 NODE_1334839    	127.3236    	0.004583    	                	;
 NODE_1328389    	128.0356    	0.000000    	                	;
 NODE_1327417    	124.9168    	0.005000    	                	;
 NODE_1335061    	131.5448    	0.000833    	                	;
 NODE_1331718    	139.3023    	0.000000    	                	;
 NODE_1332240    	127.1519    	0.006667    	                	;
 NODE_1332100    	128.2217    	0.000000    	                	;
 NODE_1342358    	144.8846    	0.000000    	                	;
 NODE_1319201    	133.7236    	0.003333    	                	;
 NODE_1327062    	122.0192    	0.001250    	                	;
 NODE_1327620    	128.1713    	0.000000    	                	;
 NODE_1330474    	136.0455    	0.000000    	                	;
 NODE_1332084    	129.2733    	0.003750    	                	;
 NODE_1339859    	126.5667    	0.004583    	                	;
 NODE_1337288    	126.8213    	0.005000    	                	;
 NODE_1339904    	121.9553    	0.000000    	                	;
 NODE_1320743    	123.7864    	0.000000    	                	;
 NODE_1333077    	124.4509    	0.006667    	                	;
 NODE_1329766    	128.6217    	0.000833    	                	;
 NODE_1327420    	125.6873    	0.000000    	                	;
 NODE_1331440    	127.9168    	0.000833    	                	;
 NODE_1342395    	133.2481    	0.000000    	                	;
 NODE_1342917    	124.8299    	0.000000    	                	;
 NODE_1315474    	126.5986    	0.000000    	                	;
 NODE_1340852    	126.9323    	0.001667    	                	;
 NODE_1333646    	125.7585    	0.000000    	                	;
 NODE_1334768    	125.8931    	0.000417    	                	;
 NODE_1327431    	127.6037    	0.000000    	                	;
 NODE_1315591    	132.2598    	0.000000    	                	;
 NODE_1330165    	126.8628    	0.000000    	                	;
 NODE_1315589    	134.7213    	0.000000    	                	;
 NODE_1320673    	134.8670    	0.001250    	                	;
 NODE_1326982    	125.4273    	0.000000    	                	;
 NODE_1327651    	124.3199    	0.005417    	                	;
 NODE_1328719    	124.4779    	0.006250    	                	;
 NODE_1330439    	124.3839    	0.004583    	                	;
 NODE_1342507    	121.7421    	0.005000    	                	;
 NODE_1343029    	120.9250    	0.004583    	                	;
 NODE_1320737    	121.3807    	0.000000    	                	;
 NODE_1320740    	122.9912    	0.000000    	                	;
 NODE_1342202    	119.4031    	0.000000    	                	;
 NODE_1332855    	126.9684    	0.000000    	                	;
 NODE_1320164    	127.7519    	0.007917    	                	;
 NODE_1341602    	127.8923    	0.004167    	                	;
 NODE_1323123    	133.9616    	0.005000    	                	;
 NODE_1340349    	127.6710    	0.001250    	                	;
 NODE_1335547    	126.0622    	0.002500    	                	;
 NODE_1341611    	125.6786    	0.000000    	                	;
 NODE_1332408    	126.8675    	0.000833    	                	;
 NODE_1336873    	145.2937    	0.000000    	                	;
 NODE_1331726    	119.9026    	0.000000    	                	;
 NODE_1334379    	124.3391    	0.005000    	                	;
 NODE_1332680    	123.9754    	0.011250    	                	;
 NODE_1332713    	140.5962    	0.000000    	                	;
 NODE_1331880    	130.9392    	0.001667    	                	;
 NODE_1331882    	121.2886    	0.000000    	                	;
 NODE_1332354    	126.7735    	0.000417    	                	;
 NODE_1328168    	121.5931    	0.000833    	                	;
 NODE_1333400    	120.7101    	0.003750    	                	;
 NODE_1334108    	118.7046    	0.003750    	                	;
 NODE_1334112    	118.6592    	0.000833    	                	;
 NODE_6269482    	121.2656    	0.000000    	                	;
 NODE_1322986    	119.2361    	0.000000    	                	;
 NODE_1315598    	128.3061    	0.001667    	                	;
 NODE_1332484    	123.1816    	0.002917    	                	;
 NODE_1336617    	123.3297    	0.000833    	                	;
 NODE_1319071    	122.9999    	0.005417    	                	;
 NODE_1340332    	126.7289    	0.000833    	                	;
 NODE_1319939    	129.0673    	0.042083    	                	;
 NODE_1331470    	127.7720    	0.000000    	                	;
 NODE_1332226    	131.5390    	0.035000    	                	;
 NODE_1322855    	132.4288    	0.003333    	                	;
 NODE_1333307    	127.9959    	0.003333    	                	;
 NODE_1316122    	128.0913    	0.003750    	                	;
 NODE_1333844    	127.3520    	0.002500    	                	;
 NODE_1339857    	126.6271    	0.003750    	                	;
 NODE_7687651    	127.5647    	0.003750    	                	;
 NODE_1342388    	126.3540    	0.000000    	                	;
 NODE_1330141    	125.3533    	0.000000    	                	;
 NODE_1339685    	121.5093    	0.000000    	                	;
 NODE_1342164    	136.5675    	0.006667    	                	;
 NODE_1332118    	124.7228    	0.007083    	                	;
 NODE_1316960    	121.2693    	0.007500    	                	;
 NODE_1319614    	120.1582    	0.002500    	                	;
 NODE_1332706    	136.5107    	0.000417    	                	;
 NODE_1317395    	139.8910    	0.001250    	                	;
 NODE_1332069    	126.9499    	0.005417    	                	;
 NODE_1320207    	124.3573    	0.002083    	                	;
 NODE_7687532    	125.4339    	0.003333    	                	;
 NODE_10367767   	126.0422    	0.000000    	                	;
 NODE_1329195    	122.0488    	0.003750    	                	;
 NODE_1319278    	115.7941    	0.000000    	                	;
 NODE_1342897    	133.6931    	0.005000    	                	;
 NODE_1332466    	124.4230    	0.001667    	                	;
 NODE_1319625    	123.5767    	0.002083    	                	;
 NODE_1336910    	130.0054    	0.000000    	                	;
 NODE_1335562    	130.8669    	0.000000    	                	;
 NODE_1328394    	125.7526    	0.000000    	                	;
 NODE_1339888    	129.0649    	0.001667    	                	;
 NODE_1317198    	128.5689    	0.000000    	                	;
 NODE_1319675    	119.3192    	0.000000    	                	;
 NODE_1342912    	134.4420    	0.000000    	                	;
 NODE_1333410    	119.1067    	0.005417    	                	;
 NODE_1334549    	125.4178    	0.000000    	                	;
 NODE_1334562    	121.4476    	0.000000    	                	;
 NODE_1317347    	124.6920    	0.002500    	                	;
 NODE_1335287    	131.9937    	0.000000    	                	;
 NODE_1322870    	136.4785    	0.000000    	                	;
 NODE_1330867    	129.4675    	0.019167    	                	;
 NODE_1326998    	135.8315    	0.000000    	                	;
 NODE_1329051    	135.4630    	0.000000    	                	;
 NODE_1331388    	117.5269    	0.000000    	                	;
 NODE_1319409    	126.1132    	0.000000    	                	;
 NODE_1335800    	126.6145    	0.000000    	                	;
 NODE_1341328    	130.2718    	0.000000    	                	;
 NODE_1338225    	123.0101    	0.005000    	                	;
 NODE_1329382    	122.6834    	0.006250    	                	;
 NODE_1329383    	123.8725    	0.000417    	                	;
 NODE_1328195    	123.9964    	0.002083    	                	;
 NODE_1328197    	124.1093    	0.001667    	                	;
 NODE_1342732    	118.2992    	0.000000    	                	;
 NODE_1323119    	138.6573    	0.002917    	                	;
 NODE_1337742    	138.9364    	0.001667    	                	;
 NODE_1340473    	130.1292    	0.002500    	                	;
 NODE_1341449    	133.1123    	0.000000    	                	;
 NODE_1334586    	124.3764    	0.002500    	                	;
 NODE_1333895    	120.6312    	0.011250    	                	;
 NODE_1333083    	124.4529    	0.005000    	                	;
 NODE_1332180    	124.6789    	0.002917    	                	;
 NODE_1338697    	140.1880    	0.001667    	                	;
 NODE_1331999    	125.8906    	0.000000    	                	;
 NODE_1319920    	138.4019    	0.001667    	                	;
 NODE_1337724    	126.8739    	0.000000    	                	;
 NODE_1327627    	119.8525    	0.000000    	                	;
 NODE_1318253    	127.0202    	0.004583    	                	;
 NODE_1328379    	127.7380    	0.000000    	                	;
 NODE_1316938    	127.1432    	0.000000    	                	;
 NODE_1328385    	129.8602    	0.001250    	                	;
 NODE_1319479    	129.5130    	0.000000    	                	;
 NODE_1331005    	125.0132    	0.000000    	                	;
 NODE_1336447    	131.8684    	0.000000    	                	;
 NODE_1331686    	125.5049    	0.000417    	                	;
 NODE_1339880    	127.1356    	0.000000    	                	;
 NODE_1340636    	129.0352    	0.005833    	                	;
 NODE_1319263    	126.8796    	0.000000    	                	;
 NODE_1332611    	128.1914    	0.000000    	                	;
 NODE_1339860    	125.4232    	0.004583    	                	;
 NODE_1331287    	124.9988    	0.027083    	                	;
 NODE_1321401    	124.6501    	0.000000    	                	;
 NODE_1319198    	134.3821    	0.000000    	                	;
 NODE_1319083    	119.9303    	0.000833    	                	;
 NODE_1340572    	123.0181    	0.001250    	                	;
 NODE_1341504    	124.8362    	0.000000    	                	;
 NODE_1320636    	125.4315    	0.000000    	                	;
 NODE_1334119    	119.0313    	0.000000    	                	;
 NODE_1338198    	125.4663    	0.002917    	                	;
 NODE_1340467    	126.4849    	0.000000    	                	;
 NODE_1339161    	125.6023    	0.000000    	                	;
 NODE_1332117    	124.7149    	0.000000    	                	;
 NODE_1329994    	135.7895    	0.000000    	                	;
 NODE_1327616    	129.5087    	0.000000    	                	;
 NODE_1338570    	132.4498    	0.007917    	                	;
 NODE_1321827    	127.1646    	0.042917    	                	;
 NODE_1341833    	126.4666    	0.000000    	                	;
 NODE_1332438    	127.9804    	0.000000    	                	;
 NODE_1335983    	119.5310    	0.000833    	                	;
 NODE_1334098    	120.7662    	0.001250    	                	;
 NODE_1321063    	126.6907    	0.000000    	                	;
 NODE_1330152    	126.8311    	0.000000    	                	;
 NODE_1336988    	123.6645    	0.000000    	                	;
 NODE_1331137    	125.2114    	0.000000    	                	;
 NODE_1319990    	124.6876    	0.026667    	                	;
 NODE_1320023    	136.1740    	0.015833    	                	;
 NODE_1341340    	127.7032    	0.000000    	                	;
 NODE_1340463    	135.0951    	0.000000    	                	;
 NODE_1339552    	116.2282    	0.000000    	                	;
 NODE_1322391    	116.1909    	0.000000    	                	;
 NODE_1332627    	128.5468    	0.003750    	                	;
 NODE_1341813    	124.2650    	0.000000    	                	;
 NODE_1331417    	138.7844    	0.000000    	                	;
 NODE_1332412    	131.4032    	0.000000    	                	;
 NODE_1340928    	127.0930    	0.000000    	                	;
 NODE_1321820    	124.9734    	0.007083    	                	;
 NODE_1341450    	124.0100    	0.002917    	                	;
 NODE_1340224    	126.8794    	0.004167    	                	;
 NODE_1341630    	129.3857    	0.000000    	                	;
 NODE_1340914    	129.2969    	0.001250    	                	;
 NODE_1331727    	119.8537    	0.000417    	                	;
 NODE_1316475    	124.8081    	0.005833    	                	;
 NODE_1319082    	119.5361    	0.000000    	                	;
 NODE_1332682    	124.0255    	0.004167    	                	;