[TITLE]
Converted from Epanet to Staci, case name: gloriette.spr


[JUNCTIONS]
;ID              	Elev        	Demand      	Pattern         
 NODE_1313487    	169.1206    	0.000000    	                	;
 NODE_1313491    	174.3168    	0.001858    	                	;
 NODE_1313498    	173.7709    	0.004167    	                	;
 NODE_1313504    	173.4864    	0.004167    	                	;
 NODE_1313507    	174.3088    	0.004167    	                	;
 NODE_1330283    	146.8091    	0.007083    	                	;
 NODE_1313499    	173.7742    	0.000417    	                	;
 NODE_1322437    	174.5936    	0.001250    	                	;
 NODE_1313489    	173.6553    	0.000000    	                	;
 NODE_1313757    	146.7788    	0.000000    	                	;
 NODE_1313497    	173.9149    	0.009583    	                	;
 NODE_1313510    	174.3447    	0.007083    	                	;
 NODE_1313513    	174.4205    	0.002917    	                	;
 NODE_1330285    	164.6638    	0.002121    	                	;
 NODE_1330286    	163.8177    	0.009892    	                	;
 NODE_1330304    	163.3283    	0.000096    	                	;
 NODE_1330306    	164.1528    	0.000529    	                	;
 NODE_1337427    	164.0444    	0.000150    	                	;
 NODE_1322439    	150.3187    	0.002917    	                	;
 NODE_1336191    	174.4690    	0.000000    	                	;
 NODE_1330287    	174.7220    	0.016237    	                	;
 NODE_1313500    	173.7366    	0.000833    	                	;
 NODE_1313506    	174.2646    	0.002917    	                	;
 NODE_1313511    	174.3869    	0.000000    	                	;
 NODE_1313514    	174.4311    	0.006667    	                	;
 NODE_1322434    	173.8082    	0.005833    	                	;
 NODE_1322440    	174.2912    	0.003596    	                	;
 NODE_1313515    	163.5979    	0.000000    	                	;
 NODE_1313496    	173.9928    	0.003333    	                	;
 NODE_1313505    	174.0099    	0.003750    	                	;
 NODE_1322431    	173.9354    	0.000833    	                	;
 NODE_1322438    	174.6015    	0.002500    	                	;
 NODE_1331228    	148.3766    	0.003750    	                	;
 NODE_1336192    	166.7699    	0.000000    	                	;
 NODE_1313488    	174.4734    	0.000000    	                	;
 NODE_1313509    	174.3425    	0.004167    	                	;
 NODE_1313512    	174.4090    	0.001667    	                	;
 NODE_1322432    	173.6217    	0.007083    	                	;
 NODE_1313503    	173.7676    	0.002500    	                	;
 NODE_1313508    	174.3382    	0.003396    	                	;
 NODE_1330282    	146.8280    	0.018817    	                	;
 NODE_1330284    	163.8113    	0.010221    	                	;
 NODE_1322433    	173.7428    	0.003408    	                	;
 NODE_1322435    	174.1913    	0.001667    	                	;
 NODE_1322436    	174.3462    	0.008750    	                	;
 NODE_3349       	147.0717    	0.000000    	                	;
 NODE_3349_1     	146.7537    	0.000000    	                	;
 NODE_1343484    	149.4692    	0.000000    	                	;
 NODE_8577       	174.4854    	0.000000    	                	;
 NODE_8577_1     	174.4814    	0.000000    	                	;
 NODE_1343579    	174.4852    	0.000000    	                	;
 NODE_1343500    	149.5106    	0.000000    	                	;
 NODE_1343483    	147.0374    	0.000000    	                	;
 NODE_8583       	149.4725    	0.000000    	                	;
 NODE_8583_1     	149.2036    	0.000000    	                	;
 NODE_1343482    	146.9713    	0.000000    	                	;
 NODE_3351       	147.0049    	0.000000    	                	;
 NODE_3351_1     	146.6869    	0.000000    	                	;
 NODE_8584       	149.5486    	0.000000    	                	;
 NODE_8584_1     	149.3004    	0.000000    	                	;

[RESERVOIRS]
;ID              	Head        	Pattern         
 PRESS_665       	206.6114    	                

[TANKS]
;ID             	Elevation   	InitLevel   	MinLevel    	MaxLevel    	Diameter    	MinVol      	VolCurve

[PIPES]
;ID             	Node1           	Node2           	Length      	Diameter    	Roughness   	MinorLoss   	Status
 PIPE_303217     	NODE_1343483    	NODE_1343484    	18.5207     	110.0000    	0.0200     	0.0000      	Open  ;
 PIPE_303259     	NODE_1343500    	NODE_1343484    	0.4284      	110.0000    	0.0200     	0.0000      	Open  ;
 PIPE_1418977    	NODE_1322438    	NODE_1330287    	4.3185      	110.0000    	0.0200     	0.0000      	Open  ;
 PIPE_1418983    	NODE_1322437    	NODE_1322438    	0.2828      	110.0000    	0.0200     	0.0000      	Open  ;
 PIPE_1418989    	NODE_1322436    	NODE_1322437    	10.8310     	110.0000    	0.0200     	0.0000      	Open  ;
 PIPE_1419032    	NODE_1330306    	NODE_1337427    	5.3873      	110.0000    	0.0200     	0.0000      	Open  ;
 PIPE_1419038    	NODE_1330304    	NODE_1336192    	57.5259     	110.0000    	0.0200     	0.0000      	Open  ;
 PIPE_1419073    	NODE_1337427    	NODE_1330286    	9.0648      	110.0000    	0.0200     	0.0000      	Open  ;
 PIPE_1419074    	NODE_1330286    	NODE_1330304    	23.0872     	110.0000    	0.0200     	0.0000      	Open  ;
 PIPE_1419080    	NODE_1330285    	NODE_1330306    	11.5250     	110.0000    	0.0200     	0.0000      	Open  ;
 PIPE_1419086    	NODE_1330284    	NODE_1330285    	41.5346     	110.0000    	0.0200     	0.0000      	Open  ;
 PIPE_1419091    	NODE_1313757    	NODE_1330283    	0.8898      	110.0000    	0.0200     	0.0000      	Open  ;
 PIPE_1419097    	NODE_1330283    	NODE_1330282    	0.5587      	110.0000    	0.0200     	0.0000      	Open  ;
 PIPE_1419098    	NODE_1330282    	NODE_1331228    	49.7788     	110.0000    	0.0200     	0.0000      	Open  ;
 PIPE_1419103    	NODE_1322439    	NODE_1313515    	189.2507    	110.0000    	0.0200     	0.0000      	Open  ;
 PIPE_1419104    	NODE_1313515    	NODE_1330284    	22.3971     	110.0000    	0.0200     	0.0000      	Open  ;
 PIPE_1419109    	NODE_1336191    	NODE_1313514    	17.8305     	110.0000    	0.0200     	0.0000      	Open  ;
 PIPE_1419116    	NODE_1313514    	NODE_1313513    	7.8913      	110.0000    	0.0200     	0.0000      	Open  ;
 PIPE_1419123    	NODE_1313513    	NODE_1313512    	7.7536      	110.0000    	0.0200     	0.0000      	Open  ;
 PIPE_1419130    	NODE_1313512    	NODE_1313511    	6.0286      	110.0000    	0.0200     	0.0000      	Open  ;
 PIPE_1419137    	NODE_1313511    	NODE_1313510    	11.9100     	110.0000    	0.0200     	0.0000      	Open  ;
 PIPE_1419143    	NODE_1313510    	NODE_1313509    	1.9432      	110.0000    	0.0200     	0.0000      	Open  ;
 PIPE_1419149    	NODE_1313509    	NODE_1313508    	3.9331      	110.0000    	0.0200     	0.0000      	Open  ;
 PIPE_1419155    	NODE_1313508    	NODE_1313507    	12.4515     	110.0000    	0.0200     	0.0000      	Open  ;
 PIPE_1419156    	NODE_1313507    	NODE_1322440    	5.2051      	110.0000    	0.0200     	0.0000      	Open  ;
 PIPE_1419161    	NODE_1322440    	NODE_1313506    	5.3404      	110.0000    	0.0200     	0.0000      	Open  ;
 PIPE_1419167    	NODE_1313506    	NODE_1313505    	20.9581     	110.0000    	0.0200     	0.0000      	Open  ;
 PIPE_1419168    	NODE_1313505    	NODE_1322431    	1.7015      	110.0000    	0.0200     	0.0000      	Open  ;
 PIPE_1421360    	NODE_1322431    	NODE_1313504    	10.5319     	110.0000    	0.0200     	0.0000      	Open  ;
 PIPE_1421361    	NODE_1313504    	NODE_1322432    	6.7963      	110.0000    	0.0200     	0.0000      	Open  ;
 PIPE_1421367    	NODE_1313503    	NODE_1322433    	2.8621      	110.0000    	0.0200     	0.0000      	Open  ;
 PIPE_1421372    	NODE_1322433    	NODE_1313500    	10.3004     	110.0000    	0.0200     	0.0000      	Open  ;
 PIPE_1421373    	NODE_1313500    	NODE_1322434    	6.7052      	110.0000    	0.0200     	0.0000      	Open  ;
 PIPE_1421379    	NODE_1322434    	NODE_1313499    	8.3964      	110.0000    	0.0200     	0.0000      	Open  ;
 PIPE_1421385    	NODE_1313499    	NODE_1313498    	0.8160      	110.0000    	0.0200     	0.0000      	Open  ;
 PIPE_1421391    	NODE_1313498    	NODE_1313497    	15.5997     	110.0000    	0.0200     	0.0000      	Open  ;
 PIPE_1421397    	NODE_1313497    	NODE_1313496    	14.8909     	110.0000    	0.0200     	0.0000      	Open  ;
 PIPE_1421398    	NODE_1313496    	NODE_1322435    	7.7163      	110.0000    	0.0200     	0.0000      	Open  ;
 PIPE_1421403    	NODE_1322432    	NODE_1313489    	1.6834      	110.0000    	0.0200     	0.0000      	Open  ;
 PIPE_1421404    	NODE_1313489    	NODE_1313503    	7.4286      	110.0000    	0.0200     	0.0000      	Open  ;
 PIPE_1421410    	NODE_1313488    	NODE_1343579    	32.2777     	110.0000    	0.0200     	0.0000      	Open  ;
 PIPE_1421414    	NODE_1336192    	NODE_1313487    	31.8419     	110.0000    	0.0200     	0.0000      	Open  ;
 PIPE_1421415    	NODE_1313487    	NODE_1313488    	195.0420    	110.0000    	0.0200     	0.0000      	Open  ;
 PIPE_2850798    	PRESS_665       	NODE_3349_1     	3.5744      	63.0000     	0.0200     	0.0000      	Open  ;
 PIPE_2850799    	NODE_3349       	NODE_1343483    	0.2328      	63.0000     	0.0200     	0.0000      	Open  ;
 PIPE_2850814    	NODE_1343483    	NODE_3351_1     	0.2425      	110.0000    	0.0200     	0.0000      	Open  ;
 PIPE_2850815    	NODE_3351       	NODE_1343482    	0.2744      	110.0000    	0.0200     	0.0000      	Open  ;
 PIPE_2850859    	NODE_1343500    	NODE_8584_1     	0.2905      	110.0000    	0.0200     	0.0000      	Open  ;
 PIPE_2850860    	NODE_8584       	NODE_1322439    	7.6622      	110.0000    	0.0200     	0.0000      	Open  ;
 PIPE_2850866    	NODE_1331228    	NODE_8583_1     	75.6949     	110.0000    	0.0200     	0.0000      	Open  ;
 PIPE_2850867    	NODE_8583       	NODE_1343500    	0.2905      	110.0000    	0.0200     	0.0000      	Open  ;
 PIPE_2850898    	NODE_1343579    	NODE_8577_1     	0.3000      	110.0000    	0.0200     	0.0000      	Open  ;
 PIPE_2850899    	NODE_8577       	NODE_1336191    	7.6024      	110.0000    	0.0200     	0.0000      	Open  ;
 PIPE_6270267    	NODE_1322435    	NODE_1313491    	7.4910      	110.0000    	0.0200     	0.0000      	Open  ;
 PIPE_6270268    	NODE_1313491    	NODE_1322436    	7.3354      	110.0000    	0.0200     	0.0000      	Open  ;

[PUMPS]
;ID             	Node1           	Node2           	Parameters

[VALVES]
;ID             	Node1           	Node2           	Diameter    	Type	Setting     	MinorLoss   
 VALVE_8584      	NODE_8584       	NODE_8584_1     	100.0000    	ISO 	0.0000      	0.0000      
 VALVE_8583      	NODE_8583       	NODE_8583_1     	100.0000    	ISO 	0.0000      	0.0000      
 VALVE_3349      	NODE_3349       	NODE_3349_1     	100.0000    	ISO 	0.0000      	0.0000      
 VALVE_3351      	NODE_3351       	NODE_3351_1     	100.0000    	ISO 	0.0000      	0.0000      
 VALVE_8577      	NODE_8577       	NODE_8577_1     	100.0000    	ISO 	0.0000      	0.0000      

[TAGS]

[DEMANDS]
;Junction       	Demand      	Pattern         	Category

[STATUS]
;ID              	Status/Setting

[PATTERNS]
;ID             	Multipliers

[CURVES]
;ID             	X-Value     	Y-Value

[CONTROLS]

[RULES]

[ENERGY]

[EMITTERS]

[QUALITY]

[SOURCES]

[REACTIONS]

[MIXING]

[TIMES]

[REPORT]

[OPTIONS]
 Units              	LPS
 Headloss           	C-F
 Specific Gravity   	1.0
 Viscosity          	1.0
 Trials             	40
 Accuracy           	0.001
 CHECKFREQ          	2
 MAXCHECK           	10
 DAMPLIMIT          	0
 Unbalanced         	Continue 10
 Pattern            	1
 Demand Multiplier  	1.0
 Emitter Exponent   	0.5
 Quality            	Chlorine mg/L
 Diffusivity        	1.0
 Tolerance          	0.01

[COORDINATES]
;Node           	X-Coord         	Y-Coord
 NODE_1313487    	256860.0128     	473689.5562     
 NODE_1313491    	256446.8298     	473556.1691     
 NODE_1313498    	256490.7722     	473568.7134     
 NODE_1313504    	256534.1221     	473580.7440     
 NODE_1313507    	256576.2467     	473592.5106     
 NODE_1330283    	257303.0797     	473515.9105     
 NODE_1313499    	256491.5585     	473568.9313     
 NODE_1322437    	256429.2417     	473551.6451     
 NODE_1313489    	256525.9551     	473578.4627     
 NODE_1313757    	257303.5199     	473515.1373     
 NODE_1313497    	256475.7717     	473564.4312     
 NODE_1313510    	256593.8409     	473597.6442     
 NODE_1313513    	256618.5047     	473604.8406     
 NODE_1330285    	256976.2683     	473640.9953     
 NODE_1330286    	256959.1313     	473660.4472     
 NODE_1330304    	256945.0502     	473678.7417     
 NODE_1330306    	256968.2424     	473649.2392     
 NODE_1337427    	256964.6884     	473653.2879     
 NODE_1322439    	257220.5149     	473615.1903     
 NODE_1336191    	256643.3871     	473611.3000     
 NODE_1330287    	256424.7589     	473550.6076     
 NODE_1313500    	256506.1117     	473572.9640     
 NODE_1313506    	256566.0900     	473589.6735     
 NODE_1313511    	256605.2742     	473600.9802     
 NODE_1313514    	256626.0802     	473607.0510     
 NODE_1322434    	256499.6500     	473571.1735     
 NODE_1322440    	256571.2335     	473591.1103     
 NODE_1313515    	257034.3687     	473615.0653     
 NODE_1313496    	256461.4528     	473560.3435     
 NODE_1313505    	256545.9046     	473584.0351     
 NODE_1322431    	256544.2658     	473583.5774     
 NODE_1322438    	256428.9662     	473551.5814     
 NODE_1331228    	257276.9826     	473558.9018     
 NODE_1336192    	256891.4069     	473693.9480     
 NODE_1313488    	256674.1187     	473632.6807     
 NODE_1313509    	256591.9755     	473597.0999     
 NODE_1313512    	256611.0615     	473602.6688     
 NODE_1322432    	256527.5764     	473578.9155     
 NODE_1313503    	256518.7962     	473576.4789     
 NODE_1313508    	256588.1998     	473595.9983     
 NODE_1330282    	257302.8035     	473516.3961     
 NODE_1330284    	257013.5053     	473623.2077     
 NODE_1322433    	256516.0380     	473575.7146     
 NODE_1322435    	256454.0330     	473558.2254     
 NODE_1322436    	256439.7762     	473554.1555     
 NODE_3349       	257230.8178     	473632.5570     
 NODE_3349_1     	257232.8178     	473632.5570     
 NODE_1343484    	257228.2839     	473614.2210     
 NODE_8577       	256650.7535     	473613.1581     
 NODE_8577_1     	256652.7535     	473613.1581     
 NODE_1343579    	256651.0408     	473613.2445     
 NODE_1343500    	257228.3350     	473613.7957     
 NODE_1343483    	257231.0495     	473632.5339     
 NODE_8583       	257228.6248     	473613.8164     
 NODE_8583_1     	257230.6248     	473613.8164     
 NODE_1343482    	257231.1034     	473633.0476     
 PRESS_665       	257227.2738     	473633.0014     
 NODE_3351       	257231.0850     	473632.7738     
 NODE_3351_1     	257233.0850     	473632.7738     
 NODE_8584       	257228.0452     	473613.7750     
 NODE_8584_1     	257230.0452     	473613.7750     

[VERTICES]

[LABELS]

[BACKDROP]

[END]
