[TITLE]
Converted from Epanet to Staci, case name: gorbehalom.spr


[JUNCTIONS]
;ID              	Elev        	Demand      	Pattern         
 NODE_1318490    	334.4710    	0.000000    	                	;
 NODE_3980433    	316.4750    	0.000000    	                	;
 NODE_1316237    	318.0790    	0.004583    	                	;
 NODE_1335825    	330.3050    	0.009583    	                	;
 NODE_1336313    	334.3810    	0.013333    	                	;
 NODE_1318491    	320.1360    	0.002083    	                	;
 NODE_1334718    	330.7500    	0.011250    	                	;
 NODE_1338850    	329.0460    	0.000833    	                	;
 NODE_1338849    	322.4750    	0.001667    	                	;
 NODE_1338846    	334.2270    	0.002917    	                	;
 NODE_1338845    	333.4950    	0.004583    	                	;
 NODE_1331804    	331.2000    	0.011667    	                	;
 NODE_1316033    	321.7580    	0.026667    	                	;
 NODE_1325433    	309.4090    	0.005833    	                	;
 NODE_1333517    	317.8480    	0.000000    	                	;
 NODE_1335244    	317.4370    	0.006250    	                	;
 NODE_1324234    	334.6310    	0.000833    	                	;
 NODE_1333516    	334.3810    	0.006250    	                	;
 NODE_1333518    	323.6310    	0.005417    	                	;
 NODE_1335821    	334.3670    	0.003333    	                	;
 NODE_1335819    	338.5590    	0.007083    	                	;
 NODE_1335818    	336.6530    	0.001667    	                	;
 NODE_1331660    	313.9160    	0.000000    	                	;
 NODE_1318488    	326.1190    	0.004167    	                	;
 NODE_1319534    	339.0400    	0.009583    	                	;
 NODE_1336319    	374.7090    	0.002917    	                	;
 NODE_5810352    	309.9810    	0.002083    	                	;
 NODE_1324229    	331.2020    	0.000000    	                	;
 NODE_1335823    	332.1150    	0.002083    	                	;
 NODE_1334203    	376.7380    	0.004167    	                	;
 NODE_1333515    	327.9570    	0.000000    	                	;
 NODE_1318487    	290.0140    	0.000000    	                	;
 NODE_1338041    	328.8810    	0.000000    	                	;
 NODE_1336473    	376.4830    	0.005000    	                	;
 NODE_1318492    	338.8920    	0.016667    	                	;
 NODE_1333503    	309.6200    	0.009167    	                	;
 NODE_1335816    	338.5500    	0.005833    	                	;
 NODE_1335242    	320.3430    	0.000000    	                	;
 NODE_1317768    	331.5300    	0.004167    	                	;
 NODE_1333513    	328.5960    	0.011667    	                	;
 NODE_1320193    	312.6020    	0.000000    	                	;
 NODE_1335824    	331.1260    	0.002500    	                	;
 NODE_1335822    	329.7740    	0.002500    	                	;
 NODE_1338848    	336.5530    	0.001250    	                	;
 NODE_1338847    	334.4950    	0.002083    	                	;
 NODE_1333519    	335.7570    	0.000000    	                	;
 NODE_1333514    	322.7010    	0.000000    	                	;
 NODE_13412437   	309.8780    	0.000000    	                	;
 NODE_1336472    	375.0140    	0.000833    	                	;
 NODE_1336318    	376.1940    	0.004167    	                	;
 NODE_1335813    	335.9100    	0.012500    	                	;
 NODE_1337850    	309.9880    	0.010417    	                	;
 NODE_1338852    	309.5020    	0.007083    	                	;
 NODE_1338143    	309.8840    	0.003333    	                	;
 NODE_1334206    	376.5170    	0.000000    	                	;
 NODE_1333512    	309.9750    	0.000000    	                	;
 NODE_1335826    	328.4110    	0.001250    	                	;
 NODE_1327349    	327.8100    	0.001667    	                	;
 NODE_1318561    	316.5230    	0.000000    	                	;
 NODE_1330698    	328.2150    	0.002083    	                	;
 NODE_1314624    	328.8440    	0.004583    	                	;
 NODE_1325434    	331.2910    	0.004167    	                	;
 NODE_1316032    	309.9950    	0.005000    	                	;
 NODE_1324233    	313.0980    	0.000000    	                	;
 NODE_1319279    	309.9390    	0.010833    	                	;
 NODE_1331275    	332.1660    	0.000417    	                	;
 NODE_1335820    	332.9760    	0.003750    	                	;
 NODE_1335817    	337.7360    	0.000833    	                	;
 NODE_1335815    	340.2870    	0.006250    	                	;
 NODE_1333521    	316.3840    	0.003750    	                	;
 NODE_1335243    	321.3090    	0.000000    	                	;
 NODE_1334938    	325.2240    	0.000417    	                	;
 NODE_1333511    	321.0210    	0.004583    	                	;
 NODE_1331465    	380.4020    	0.000000    	                	;
 NODE_1336979    	375.8760    	0.003750    	                	;
 NODE_1338851    	328.7670    	0.000000    	                	;
 NODE_1318489    	328.8140    	0.006250    	                	;
 NODE_1321694    	332.4000    	0.001667    	                	;
 NODE_1316509    	374.2200    	0.005417    	                	;
 NODE_4758       	310.5920    	0.000000    	                	;
 NODE_4758_1     	0.0000      	0.000000    	                	;
 NODE_1343112    	324.9810    	0.000000    	                	;
 NODE_4751       	335.7290    	0.000000    	                	;
 NODE_4751_1     	0.0000      	0.000000    	                	;
 NODE_1347164    	334.6210    	0.000000    	                	;
 NODE_1345196    	310.6090    	0.000000    	                	;
 NODE_3966752    	308.7000    	0.000000    	                	;
 NODE_11294823   	277.0060    	0.000000    	                	;
 NODE_4766       	301.1190    	0.000000    	                	;
 NODE_4766_1     	0.0000      	0.000000    	                	;
 NODE_4771       	330.7970    	0.000000    	                	;
 NODE_4771_1     	0.0000      	0.000000    	                	;
 NODE_3970732    	405.9510    	0.000000    	                	;
 NODE_1345195    	308.8420    	0.000000    	                	;
 NODE_4577924    	334.0000    	0.000000    	                	;
 NODE_3357       	324.9540    	0.000000    	                	;
 NODE_3357_1     	0.0000      	0.000000    	                	;
 NODE_4759       	325.1310    	0.000000    	                	;
 NODE_4759_1     	0.0000      	0.000000    	                	;
 NODE_1347272    	277.0420    	0.000000    	                	;
 NODE_4577930    	301.1100    	0.000000    	                	;
 NODE_1347183    	301.1250    	0.000000    	                	;
 NODE_4768       	327.4310    	0.000000    	                	;
 NODE_4768_1     	0.0000      	0.000000    	                	;
 NODE_4774       	290.0090    	0.000000    	                	;
 NODE_4774_1     	0.0000      	0.000000    	                	;
 NODE_1347150    	333.9410    	0.000000    	                	;
 NODE_1347182    	301.1420    	0.000000    	                	;
 NODE_3968565    	405.5000    	0.000000    	                	;
 NODE_1348383    	308.6410    	0.000000    	                	;
 NODE_4763       	334.1500    	0.000000    	                	;
 NODE_4763_1     	0.0000      	0.000000    	                	;
 NODE_4764       	334.6180    	0.000000    	                	;
 NODE_4764_1     	0.0000      	0.000000    	                	;
 NODE_5201       	308.8370    	0.000000    	                	;
 NODE_5201_1     	0.0000      	0.000000    	                	;
 NODE_4765       	334.6280    	0.000000    	                	;
 NODE_4765_1     	0.0000      	0.000000    	                	;
 NODE_1347202    	327.4050    	0.000000    	                	;
 NODE_1345180    	334.1740    	0.000000    	                	;
 NODE_1347204    	327.9140    	0.000000    	                	;
 NODE_4773       	290.0190    	0.000000    	                	;
 NODE_4773_1     	0.0000      	0.000000    	                	;
 NODE_4767       	301.1180    	0.000000    	                	;
 NODE_4767_1     	0.0000      	0.000000    	                	;
 NODE_4761       	332.0160    	0.000000    	                	;
 NODE_4761_1     	0.0000      	0.000000    	                	;
 NODE_4760       	333.9650    	0.000000    	                	;
 NODE_4760_1     	0.0000      	0.000000    	                	;
 NODE_5200       	308.8410    	0.000000    	                	;
 NODE_5200_1     	0.0000      	0.000000    	                	;
 NODE_3995620    	339.0710    	0.000000    	                	;
 NODE_1346905    	405.5960    	0.000000    	                	;
 NODE_4762       	334.1960    	0.000000    	                	;
 NODE_4762_1     	0.0000      	0.000000    	                	;
 NODE_11294844   	405.9510    	0.833333    	                	;
 NODE_4752       	339.0710    	0.000000    	                	;
 NODE_4752_1     	0.0000      	0.000000    	                	;
 NODE_4749       	335.7860    	0.000000    	                	;
 NODE_4749_1     	0.0000      	0.000000    	                	;
 NODE_1345208    	331.9980    	0.000000    	                	;
 NODE_4770       	327.4010    	0.000000    	                	;
 NODE_4770_1     	0.0000      	0.000000    	                	;
 NODE_4715       	376.5460    	0.000000    	                	;
 NODE_4715_1     	0.0000      	0.000000    	                	;
 NODE_4769       	327.4110    	0.000000    	                	;
 NODE_4769_1     	0.0000      	0.000000    	                	;
 NODE_4716       	376.4730    	0.000000    	                	;
 NODE_4716_1     	0.0000      	0.000000    	                	;
 NODE_3971176    	325.1300    	0.000000    	                	;

[RESERVOIRS]
;ID              	Head        	Pattern         

[TANKS]
;ID             	Elevation   	InitLevel   	MinLevel    	MaxLevel    	Diameter    	MinVol      	VolCurve
 POOL_220        	407.1600    	1.7300      	0.0000      	1000.0000   	6.3662      	0.0000      	                	

[PIPES]
;ID             	Node1           	Node2           	Length      	Diameter    	Roughness   	MinorLoss   	Status
 PIPE_780320     	NODE_1348383    	NODE_1347182    	505.7161    	160.0000    	0.0200     	0.0000      	Open  ;
 PIPE_784404     	NODE_1345208    	NODE_1347150    	34.2854     	160.0000    	0.0200     	0.0000      	Open  ;
 PIPE_784498     	NODE_1347182    	NODE_1347183    	9.1410      	150.0000    	0.0200     	0.0000      	Open  ;
 PIPE_784531     	NODE_1347204    	NODE_1333514    	56.9171     	90.0000     	0.0200     	0.0000      	Open  ;
 PIPE_784788     	NODE_1346905    	NODE_3968565    	10.9716     	150.0000    	0.0200     	0.0000      	Open  ;
 PIPE_1350657    	NODE_1335813    	NODE_3995620    	37.3506     	160.0000    	0.0200     	0.0000      	Open  ;
 PIPE_1350665    	NODE_1335815    	NODE_3995620    	31.2797     	160.0000    	0.0200     	0.0000      	Open  ;
 PIPE_1350674    	NODE_1335817    	NODE_1335816    	33.9350     	90.0000     	0.0200     	0.0000      	Open  ;
 PIPE_1350679    	NODE_1335818    	NODE_1335817    	21.9150     	90.0000     	0.0200     	0.0000      	Open  ;
 PIPE_1350683    	NODE_1335816    	NODE_1335819    	0.4149      	90.0000     	0.0200     	0.0000      	Open  ;
 PIPE_1350775    	NODE_1331275    	NODE_1335823    	1.5370      	90.0000     	0.0200     	0.0000      	Open  ;
 PIPE_1350787    	NODE_1335824    	NODE_1335825    	18.2411     	90.0000     	0.0200     	0.0000      	Open  ;
 PIPE_1350788    	NODE_1335825    	NODE_1335822    	9.2346      	90.0000     	0.0200     	0.0000      	Open  ;
 PIPE_1350793    	NODE_1335822    	NODE_1335826    	19.3796     	90.0000     	0.0200     	0.0000      	Open  ;
 PIPE_1351100    	NODE_1345195    	NODE_1319279    	50.1419     	160.0000    	0.0200     	0.0000      	Open  ;
 PIPE_1368355    	NODE_1318489    	NODE_1333513    	18.1169     	90.0000     	0.0200     	0.0000      	Open  ;
 PIPE_1386038    	NODE_1335819    	NODE_1318492    	20.3919     	90.0000     	0.0200     	0.0000      	Open  ;
 PIPE_1386997    	NODE_1318491    	NODE_1333517    	19.2667     	110.0000    	0.0200     	0.0000      	Open  ;
 PIPE_1387004    	NODE_1333516    	NODE_1336313    	0.1476      	90.0000     	0.0200     	0.0000      	Open  ;
 PIPE_1387010    	NODE_1333515    	NODE_1347204    	0.8006      	90.0000     	0.0200     	0.0000      	Open  ;
 PIPE_1387014    	NODE_1336313    	NODE_1318490    	11.8829     	90.0000     	0.0200     	0.0000      	Open  ;
 PIPE_1387015    	NODE_1318490    	NODE_1347204    	58.2952     	90.0000     	0.0200     	0.0000      	Open  ;
 PIPE_1388916    	NODE_1335243    	NODE_1333514    	23.6916     	63.0000     	0.0200     	0.0000      	Open  ;
 PIPE_1388919    	NODE_1335244    	NODE_1335242    	21.9727     	63.0000     	0.0200     	0.0000      	Open  ;
 PIPE_1388920    	NODE_1335242    	NODE_1335243    	7.4881      	63.0000     	0.0200     	0.0000      	Open  ;
 PIPE_1389519    	NODE_1336318    	NODE_1334203    	25.9090     	160.0000    	0.0200     	0.0000      	Open  ;
 PIPE_1392516    	NODE_1338041    	NODE_1314624    	2.0003      	90.0000     	0.0200     	0.0000      	Open  ;
 PIPE_1392517    	NODE_1314624    	NODE_1318489    	2.0306      	90.0000     	0.0200     	0.0000      	Open  ;
 PIPE_1392734    	NODE_1333513    	NODE_1330698    	10.3328     	90.0000     	0.0200     	0.0000      	Open  ;
 PIPE_1392735    	NODE_1330698    	NODE_1333515    	5.1811      	90.0000     	0.0200     	0.0000      	Open  ;
 PIPE_1392982    	NODE_1318492    	NODE_1319534    	30.4513     	90.0000     	0.0200     	0.0000      	Open  ;
 PIPE_1393509    	NODE_1345196    	NODE_1320193    	31.3509     	160.0000    	0.0200     	0.0000      	Open  ;
 PIPE_1393914    	NODE_1319279    	NODE_1338143    	24.3533     	160.0000    	0.0200     	0.0000      	Open  ;
 PIPE_1393915    	NODE_1338143    	NODE_1345196    	29.1061     	160.0000    	0.0200     	0.0000      	Open  ;
 PIPE_1394593    	NODE_1333511    	NODE_1316033    	8.0734      	160.0000    	0.0200     	0.0000      	Open  ;
 PIPE_1394594    	NODE_1316033    	NODE_3971176    	36.1655     	160.0000    	0.0200     	0.0000      	Open  ;
 PIPE_1404992    	NODE_1335820    	NODE_1338845    	12.9415     	110.0000    	0.0200     	0.0000      	Open  ;
 PIPE_1404993    	NODE_1338845    	NODE_1335821    	25.1860     	110.0000    	0.0200     	0.0000      	Open  ;
 PIPE_1405057    	NODE_1345180    	NODE_1338846    	2.8007      	90.0000     	0.0200     	0.0000      	Open  ;
 PIPE_1405061    	NODE_1338846    	NODE_1338847    	13.6065     	90.0000     	0.0200     	0.0000      	Open  ;
 PIPE_1405068    	NODE_1338848    	NODE_1335818    	0.9238      	90.0000     	0.0200     	0.0000      	Open  ;
 PIPE_1405187    	NODE_1338849    	NODE_1318491    	18.9617     	110.0000    	0.0200     	0.0000      	Open  ;
 PIPE_1405195    	NODE_1338850    	NODE_1338851    	3.7554      	160.0000    	0.0200     	0.0000      	Open  ;
 PIPE_1405200    	NODE_1325433    	NODE_1338852    	12.9956     	110.0000    	0.0200     	0.0000      	Open  ;
 PIPE_1405201    	NODE_1338852    	NODE_1333503    	5.8119      	110.0000    	0.0200     	0.0000      	Open  ;
 PIPE_1405641    	NODE_1336473    	NODE_1336979    	30.6633     	160.0000    	0.0200     	0.0000      	Open  ;
 PIPE_1405642    	NODE_1336979    	NODE_1336472    	43.3709     	160.0000    	0.0200     	0.0000      	Open  ;
 PIPE_1406042    	NODE_1338851    	NODE_1327349    	12.6998     	160.0000    	0.0200     	0.0000      	Open  ;
 PIPE_1406043    	NODE_1327349    	NODE_3971176    	32.0794     	160.0000    	0.0200     	0.0000      	Open  ;
 PIPE_1406149    	NODE_1333514    	NODE_1334938    	68.3900     	90.0000     	0.0200     	0.0000      	Open  ;
 PIPE_1406150    	NODE_1334938    	NODE_1318488    	15.3516     	90.0000     	0.0200     	0.0000      	Open  ;
 PIPE_1406716    	NODE_1333521    	NODE_1316237    	21.8055     	160.0000    	0.0200     	0.0000      	Open  ;
 PIPE_1406717    	NODE_1316237    	NODE_1333511    	32.2395     	160.0000    	0.0200     	0.0000      	Open  ;
 PIPE_1406953    	NODE_1347150    	NODE_1324234    	13.6987     	160.0000    	0.0200     	0.0000      	Open  ;
 PIPE_1406957    	NODE_1320193    	NODE_1324233    	7.7472      	160.0000    	0.0200     	0.0000      	Open  ;
 PIPE_1408361    	NODE_1345208    	NODE_1324229    	11.7570     	160.0000    	0.0200     	0.0000      	Open  ;
 PIPE_1408362    	NODE_1324229    	NODE_1338850    	32.4121     	160.0000    	0.0200     	0.0000      	Open  ;
 PIPE_1409819    	NODE_1318561    	NODE_3980433    	0.6000      	110.0000    	0.0200     	0.0000      	Open  ;
 PIPE_1410746    	NODE_1317768    	NODE_1321694    	20.8007     	110.0000    	0.0200     	0.0000      	Open  ;
 PIPE_1410747    	NODE_1321694    	NODE_1335820    	14.4033     	110.0000    	0.0200     	0.0000      	Open  ;
 PIPE_2808525    	NODE_1345195    	NODE_5201_1     	0.2102      	150.0000    	0.0200     	0.0000      	Open  ;
 PIPE_2808526    	NODE_5201       	NODE_1348383    	8.6974      	150.0000    	0.0200     	0.0000      	Open  ;
 PIPE_2808533    	NODE_1345195    	NODE_5200_1     	0.2089      	150.0000    	0.0200     	0.0000      	Open  ;
 PIPE_2808534    	NODE_5200       	NODE_3966752    	2.4788      	150.0000    	0.0200     	0.0000      	Open  ;
 PIPE_2810942    	NODE_1343112    	NODE_3357_1     	0.3008      	110.0000    	0.0200     	0.0000      	Open  ;
 PIPE_2810943    	NODE_3357       	NODE_1318561    	93.7756     	110.0000    	0.0200     	0.0000      	Open  ;
 PIPE_2813106    	NODE_1343112    	NODE_4759_1     	8.1477      	110.0000    	0.0200     	0.0000      	Open  ;
 PIPE_2813107    	NODE_4759       	NODE_3971176    	0.2973      	110.0000    	0.0200     	0.0000      	Open  ;
 PIPE_2813113    	NODE_1345196    	NODE_4758_1     	0.7072      	110.0000    	0.0200     	0.0000      	Open  ;
 PIPE_2813253    	NODE_1319534    	NODE_4752_1     	14.1651     	90.0000     	0.0200     	0.0000      	Open  ;
 PIPE_2813254    	NODE_4752       	NODE_3995620    	0.2955      	90.0000     	0.0200     	0.0000      	Open  ;
 PIPE_2813258    	NODE_1324234    	NODE_4751_1     	13.4702     	160.0000    	0.0200     	0.0000      	Open  ;
 PIPE_2813259    	NODE_4751       	NODE_1333519    	0.3479      	160.0000    	0.0200     	0.0000      	Open  ;
 PIPE_2813272    	NODE_1333519    	NODE_4749_1     	0.3511      	160.0000    	0.0200     	0.0000      	Open  ;
 PIPE_2813273    	NODE_4749       	NODE_1335813    	1.5329      	160.0000    	0.0200     	0.0000      	Open  ;
 PIPE_2813813    	NODE_1347272    	NODE_4774_1     	668.2648    	160.0000    	0.0200     	0.0000      	Open  ;
 PIPE_2813814    	NODE_4774       	NODE_1318487    	0.2973      	160.0000    	0.0200     	0.0000      	Open  ;
 PIPE_2813820    	NODE_4773_1     	NODE_1318487    	0.3041      	160.0000    	0.0200     	0.0000      	Open  ;
 PIPE_2814469    	NODE_1334206    	NODE_4716_1     	0.4465      	160.0000    	0.0200     	0.0000      	Open  ;
 PIPE_2814470    	NODE_4716       	NODE_1336473    	33.0453     	160.0000    	0.0200     	0.0000      	Open  ;
 PIPE_2814477    	NODE_1334206    	NODE_4715_1     	0.2830      	160.0000    	0.0200     	0.0000      	Open  ;
 PIPE_2814478    	NODE_4715       	NODE_1335815    	1154.7828   	160.0000    	0.0200     	0.0000      	Open  ;
 PIPE_2814620    	NODE_1334718    	NODE_4771_1     	0.4205      	90.0000     	0.0200     	0.0000      	Open  ;
 PIPE_2814621    	NODE_4771       	NODE_1347164    	34.0726     	90.0000     	0.0200     	0.0000      	Open  ;
 PIPE_2814628    	NODE_1335826    	NODE_4770_1     	23.9309     	90.0000     	0.0200     	0.0000      	Open  ;
 PIPE_2814629    	NODE_4770       	NODE_1347202    	0.3068      	90.0000     	0.0200     	0.0000      	Open  ;
 PIPE_2814634    	NODE_1318488    	NODE_4769_1     	24.4693     	90.0000     	0.0200     	0.0000      	Open  ;
 PIPE_2814635    	NODE_4769       	NODE_1347202    	0.2973      	90.0000     	0.0200     	0.0000      	Open  ;
 PIPE_2814640    	NODE_1347202    	NODE_4768_1     	0.2773      	90.0000     	0.0200     	0.0000      	Open  ;
 PIPE_2814641    	NODE_4768       	NODE_1334718    	33.0032     	90.0000     	0.0200     	0.0000      	Open  ;
 PIPE_2814648    	NODE_1347183    	NODE_4767_1     	0.2997      	160.0000    	0.0200     	0.0000      	Open  ;
 PIPE_2814649    	NODE_4767       	NODE_4773       	910.1191    	160.0000    	0.0200     	0.0000      	Open  ;
 PIPE_2814655    	NODE_1347183    	NODE_4766_1     	0.2997      	150.0000    	0.0200     	0.0000      	Open  ;
 PIPE_2814656    	NODE_4766       	NODE_4577930    	1.0332      	150.0000    	0.0200     	0.0000      	Open  ;
 PIPE_2814692    	NODE_1347164    	NODE_4765_1     	0.6978      	90.0000     	0.0200     	0.0000      	Open  ;
 PIPE_2814693    	NODE_4765       	NODE_1338848    	25.7689     	90.0000     	0.0200     	0.0000      	Open  ;
 PIPE_2814698    	NODE_1338847    	NODE_4764_1     	7.9578      	90.0000     	0.0200     	0.0000      	Open  ;
 PIPE_2814699    	NODE_4764       	NODE_1347164    	0.2997      	90.0000     	0.0200     	0.0000      	Open  ;
 PIPE_2814704    	NODE_1345180    	NODE_4763_1     	0.2773      	90.0000     	0.0200     	0.0000      	Open  ;
 PIPE_2814705    	NODE_4763       	NODE_4577924    	10.9377     	90.0000     	0.0200     	0.0000      	Open  ;
 PIPE_2814712    	NODE_1345180    	NODE_4762_1     	0.2683      	90.0000     	0.0200     	0.0000      	Open  ;
 PIPE_2814713    	NODE_4762       	NODE_1333516    	38.6180     	90.0000     	0.0200     	0.0000      	Open  ;
 PIPE_2814720    	NODE_1345208    	NODE_4761_1     	0.2968      	90.0000     	0.0200     	0.0000      	Open  ;
 PIPE_2814721    	NODE_4761       	NODE_1331275    	14.5042     	90.0000     	0.0200     	0.0000      	Open  ;
 PIPE_2814728    	NODE_1335821    	NODE_4760_1     	18.0586     	110.0000    	0.0200     	0.0000      	Open  ;
 PIPE_2814729    	NODE_4760       	NODE_1347150    	0.2997      	110.0000    	0.0200     	0.0000      	Open  ;
 PIPE_3851526    	POOL_220        	NODE_3970732    	3.4178      	160.0000    	0.0200     	0.0000      	Open  ;
 PIPE_3851552    	POOL_220        	NODE_1346905    	3.2139      	150.0000    	0.0200     	0.0000      	Open  ;
 PIPE_3851579    	NODE_11294823   	NODE_1347272    	2.2217      	160.0000    	0.0200     	0.0000      	Open  ;
 PIPE_6274051    	NODE_1337850    	NODE_5810352    	15.8051     	110.0000    	0.0200     	0.0000      	Open  ;
 PIPE_6274052    	NODE_5810352    	NODE_1333512    	3.1000      	110.0000    	0.0200     	0.0000      	Open  ;
 PIPE_6274518    	NODE_1335823    	NODE_1325434    	24.7728     	90.0000     	0.0200     	0.0000      	Open  ;
 PIPE_6274519    	NODE_1325434    	NODE_1335824    	4.4697      	90.0000     	0.0200     	0.0000      	Open  ;
 PIPE_6274524    	NODE_1343112    	NODE_1333518    	37.4221     	110.0000    	0.0200     	0.0000      	Open  ;
 PIPE_6274525    	NODE_1333518    	NODE_1338849    	15.4381     	110.0000    	0.0200     	0.0000      	Open  ;
 PIPE_6274530    	NODE_1324233    	NODE_1331660    	11.8204     	160.0000    	0.0200     	0.0000      	Open  ;
 PIPE_6274531    	NODE_1331660    	NODE_1333521    	33.8817     	160.0000    	0.0200     	0.0000      	Open  ;
 PIPE_6274536    	NODE_1334203    	NODE_1331465    	64.4245     	160.0000    	0.0200     	0.0000      	Open  ;
 PIPE_6274537    	NODE_1331465    	NODE_3970732    	397.1386    	160.0000    	0.0200     	0.0000      	Open  ;
 PIPE_6274548    	NODE_1334718    	NODE_1331804    	18.6467     	110.0000    	0.0200     	0.0000      	Open  ;
 PIPE_6274549    	NODE_1331804    	NODE_1317768    	8.7865      	110.0000    	0.0200     	0.0000      	Open  ;
 PIPE_6274561    	NODE_1333503    	NODE_1316032    	49.2388     	110.0000    	0.0200     	0.0000      	Open  ;
 PIPE_6274562    	NODE_1316032    	NODE_1337850    	3.9862      	110.0000    	0.0200     	0.0000      	Open  ;
 PIPE_6274568    	NODE_1316509    	NODE_1336318    	63.4712     	160.0000    	0.0200     	0.0000      	Open  ;
 PIPE_6274585    	NODE_1336472    	NODE_1336319    	15.9241     	160.0000    	0.0200     	0.0000      	Open  ;
 PIPE_6274586    	NODE_1336319    	NODE_1316509    	26.5427     	160.0000    	0.0200     	0.0000      	Open  ;
 PIPE_11294848   	POOL_220        	NODE_11294844   	0.5630      	160.0000    	0.0200     	0.0000      	Open  ;
 PIPE_13413081   	NODE_4758       	NODE_13412437   	28.1398     	110.0000    	0.0200     	0.0000      	Open  ;
 PIPE_13413082   	NODE_13412437   	NODE_1325433    	27.1506     	110.0000    	0.0200     	0.0000      	Open  ;

[PUMPS]
;ID             	Node1           	Node2           	Parameters

[VALVES]
;ID             	Node1           	Node2           	Diameter    	Type	Setting     	MinorLoss   
 VALVE_4761      	NODE_4761       	NODE_4761_1     	100.0000    	ISO 	0.0000      	0.0000      
 VALVE_4769      	NODE_4769       	NODE_4769_1     	100.0000    	ISO 	0.0000      	0.0000      
 VALVE_4715      	NODE_4715       	NODE_4715_1     	100.0000    	ISO 	0.0000      	0.0000      
 VALVE_5200      	NODE_5200       	NODE_5200_1     	100.0000    	ISO 	0.0000      	0.0000      
 VALVE_4773      	NODE_4773       	NODE_4773_1     	100.0000    	ISO 	0.0000      	0.0000      
 VALVE_4751      	NODE_4751       	NODE_4751_1     	100.0000    	ISO 	0.0000      	0.0000      
 VALVE_4759      	NODE_4759       	NODE_4759_1     	100.0000    	ISO 	0.0000      	0.0000      
 VALVE_4762      	NODE_4762       	NODE_4762_1     	100.0000    	ISO 	0.0000      	0.0000      
 VALVE_4770      	NODE_4770       	NODE_4770_1     	100.0000    	ISO 	0.0000      	0.0000      
 VALVE_4771      	NODE_4771       	NODE_4771_1     	100.0000    	ISO 	0.0000      	0.0000      
 VALVE_4763      	NODE_4763       	NODE_4763_1     	100.0000    	ISO 	0.0000      	0.0000      
 VALVE_4768      	NODE_4768       	NODE_4768_1     	100.0000    	ISO 	0.0000      	0.0000      
 VALVE_4716      	NODE_4716       	NODE_4716_1     	100.0000    	ISO 	0.0000      	0.0000      
 VALVE_4767      	NODE_4767       	NODE_4767_1     	100.0000    	ISO 	0.0000      	0.0000      
 VALVE_4752      	NODE_4752       	NODE_4752_1     	100.0000    	ISO 	0.0000      	0.0000      
 VALVE_4758      	NODE_4758       	NODE_4758_1     	100.0000    	ISO 	0.0000      	0.0000      
 VALVE_4765      	NODE_4765       	NODE_4765_1     	100.0000    	ISO 	0.0000      	0.0000      
 VALVE_4774      	NODE_4774       	NODE_4774_1     	100.0000    	ISO 	0.0000      	0.0000      
 VALVE_4749      	NODE_4749       	NODE_4749_1     	100.0000    	ISO 	0.0000      	0.0000      
 VALVE_3357      	NODE_3357       	NODE_3357_1     	100.0000    	ISO 	0.0000      	0.0000      
 VALVE_4764      	NODE_4764       	NODE_4764_1     	100.0000    	ISO 	0.0000      	0.0000      
 VALVE_4766      	NODE_4766       	NODE_4766_1     	100.0000    	ISO 	0.0000      	0.0000      
 VALVE_4760      	NODE_4760       	NODE_4760_1     	100.0000    	ISO 	0.0000      	0.0000      
 VALVE_5201      	NODE_5201       	NODE_5201_1     	100.0000    	ISO 	0.0000      	0.0000      

[TAGS]

[DEMANDS]
;Junction       	Demand      	Pattern         	Category

[STATUS]
;ID              	Status/Setting

[PATTERNS]
;ID             	Multipliers

[CURVES]
;ID             	X-Value     	Y-Value

[CONTROLS]

[RULES]

[ENERGY]

[EMITTERS]

[QUALITY]

[SOURCES]

[REACTIONS]

[MIXING]

[TIMES]

[REPORT]

[OPTIONS]
 Units              	LPS
 Headloss           	C-F
 Specific Gravity   	1.0
 Viscosity          	1.0
 Trials             	40
 Accuracy           	0.001
 CHECKFREQ          	2
 MAXCHECK           	10
 DAMPLIMIT          	0
 Unbalanced         	Continue 10
 Pattern            	1
 Demand Multiplier  	1.0
 Emitter Exponent   	0.5
 Quality            	Chlorine mg/L
 Diffusivity        	1.0
 Tolerance          	0.01

[COORDINATES]
;Node           	X-Coord         	Y-Coord
 NODE_1318490    	261502.3800     	458406.0400     
 NODE_3980433    	261422.5805     	458728.6210     
 NODE_1316237    	261466.6175     	458686.5098     
 NODE_1335825    	261426.3353     	458525.7701     
 NODE_1336313    	261491.8000     	458411.4500     
 NODE_1318491    	261371.5800     	458698.7500     
 NODE_1334718    	261458.8000     	458473.5200     
 NODE_1338850    	261384.2187     	458593.0598     
 NODE_1338849    	261380.4084     	458681.9689     
 NODE_1338846    	261464.6669     	458433.4347     
 NODE_1338845    	261389.9217     	458504.6173     
 NODE_1331804    	261441.8555     	458481.2957     
 NODE_1316033    	261437.2969     	458658.9245     
 NODE_1325433    	261599.2284     	458659.5227     
 NODE_1333517    	261363.0639     	458716.0315     
 NODE_1335244    	261592.3361     	458473.5180     
 NODE_1324234    	261342.7055     	458511.2958     
 NODE_1333516    	261491.6700     	458411.5200     
 NODE_1333518    	261387.7859     	458668.4176     
 NODE_1335821    	261366.8947     	458514.8176     
 NODE_1335819    	261382.3635     	458435.1749     
 NODE_1335818    	261428.9543     	458428.2743     
 NODE_1331660    	261519.1998     	458703.0543     
 NODE_1318488    	261489.8900     	458515.5400     
 NODE_1319534    	261336.0910     	458456.2429     
 NODE_1336319    	260472.5616     	457872.5894     
 NODE_5810352    	261623.3802     	458575.1553     
 NODE_1324229    	261372.3384     	458562.9433     
 NODE_1335823    	261383.1492     	458545.5071     
 NODE_1334203    	260367.5200     	457920.3500     
 NODE_1333515    	261527.2000     	458458.7600     
 NODE_1318487    	261998.2300     	459957.6300     
 NODE_1338041    	261493.1465     	458474.6985     
 NODE_1336473    	260547.5195     	457822.9436     
 NODE_1318492    	261363.8300     	458443.6800     
 NODE_1333503    	261605.5006     	458641.7941     
 NODE_1335816    	261382.7406     	458435.0018     
 NODE_1335242    	261575.8217     	458487.9643     
 NODE_1317768    	261433.8299     	458484.8714     
 NODE_1333513    	261513.3500     	458465.7500     
 NODE_1320193    	261538.7189     	458703.8762     
 NODE_1335824    	261409.7799     	458533.4274     
 NODE_1335822    	261434.6879     	458521.8316     
 NODE_1338848    	261429.3352     	458429.1160     
 NODE_1338847    	261452.1741     	458438.8248     
 NODE_1333519    	261336.5400     	458498.9600     