[TITLE]
Converted from Epanet to Staci, case name: harka.spr


[JUNCTIONS]
;ID              	Elev        	Demand      	Pattern         
 NODE_1337567    	187.1577    	0.000000    	                	;
 NODE_1323188    	203.1524    	0.000000    	                	;
 NODE_1339358    	204.6020    	0.000000    	                	;
 NODE_1340653    	202.3367    	0.000000    	                	;
 NODE_1319038    	204.4659    	0.000000    	                	;
 NODE_1340131    	204.2598    	0.009192    	                	;
 NODE_1321286    	198.2516    	0.007917    	                	;
 NODE_1320200    	207.3982    	0.002662    	                	;
 NODE_1336435    	189.9159    	0.003333    	                	;
 NODE_1340080    	189.5420    	0.020000    	                	;
 NODE_1342474    	199.8769    	0.007083    	                	;
 NODE_1342475    	197.8448    	0.008333    	                	;
 NODE_1339311    	203.0122    	0.001458    	                	;
 NODE_1327384    	189.7688    	0.003333    	                	;
 NODE_1343008    	195.0175    	0.003333    	                	;
 NODE_1321291    	202.4942    	0.005879    	                	;
 NODE_1339313    	202.6145    	0.007500    	                	;
 NODE_1339516    	201.5137    	0.006058    	                	;
 NODE_1340087    	190.9437    	0.002917    	                	;
 NODE_1335604    	197.2342    	0.007083    	                	;
 NODE_1339518    	199.0158    	0.007500    	                	;
 NODE_1322915    	191.5330    	0.005833    	                	;
 NODE_1343014    	197.0045    	0.002483    	                	;
 NODE_1342484    	203.3691    	0.013096    	                	;
 NODE_1342969    	201.1872    	0.002321    	                	;
 NODE_1339278    	198.0547    	0.002500    	                	;
 NODE_1322900    	192.2359    	0.001667    	                	;
 NODE_1328533    	191.8125    	0.000417    	                	;
 NODE_1342974    	194.2036    	0.014583    	                	;
 NODE_1339285    	200.2356    	0.005833    	                	;
 NODE_1342978    	203.5350    	0.002783    	                	;
 NODE_1322904    	196.6412    	0.002917    	                	;
 NODE_1328540    	189.7439    	0.005417    	                	;
 NODE_1342981    	205.2245    	0.003333    	                	;
 NODE_1328543    	190.6823    	0.000000    	                	;
 NODE_1320765    	201.5976    	0.002083    	                	;
 NODE_1340061    	200.4044    	0.005000    	                	;
 NODE_1331631    	204.0844    	0.001667    	                	;
 NODE_1331630    	199.1298    	0.013612    	                	;
 NODE_1340068    	197.9855    	0.002500    	                	;
 NODE_1322908    	196.8522    	0.011250    	                	;
 NODE_1342261    	194.1621    	0.010000    	                	;
 NODE_1321868    	203.9653    	0.001667    	                	;
 NODE_1339302    	204.2691    	0.002917    	                	;
 NODE_1342462    	198.4956    	0.011667    	                	;
 NODE_1319706    	195.5148    	0.004167    	                	;
 NODE_1340667    	203.7567    	0.005417    	                	;
 NODE_1340144    	202.0473    	0.000833    	                	;
 NODE_1319708    	206.9611    	0.001250    	                	;
 NODE_1340151    	190.5688    	0.006250    	                	;
 NODE_1327961    	198.0697    	0.005517    	                	;
 NODE_1317890    	190.5131    	0.004583    	                	;
 NODE_1317891    	192.8800    	0.004583    	                	;
 NODE_1331294    	192.3358    	0.001667    	                	;
 NODE_1328553    	196.1634    	0.001667    	                	;
 NODE_1328559    	199.3261    	0.007083    	                	;
 NODE_1319795    	191.0703    	0.004583    	                	;
 NODE_1337967    	194.3388    	0.006250    	                	;
 NODE_1338410    	191.5187    	0.003750    	                	;
 NODE_1338773    	198.6779    	0.000000    	                	;
 NODE_1337538    	191.0792    	0.004167    	                	;
 NODE_1338871    	200.1593    	0.007917    	                	;
 NODE_1338876    	202.0039    	0.002500    	                	;
 NODE_1338879    	207.3602    	0.004583    	                	;
 NODE_1329126    	205.1657    	0.000417    	                	;
 NODE_1316127    	190.6689    	0.010417    	                	;
 NODE_1339348    	205.3960    	0.000000    	                	;
 NODE_1323186    	203.6659    	0.000000    	                	;
 NODE_1339362    	209.4469    	0.005417    	                	;
 NODE_1339567    	206.8883    	0.001250    	                	;
 NODE_1340155    	206.6703    	0.000000    	                	;
 NODE_1342792    	201.0762    	0.000000    	                	;
 NODE_1322619    	202.4128    	0.000000    	                	;
 NODE_1338780    	199.3400    	0.000000    	                	;
 NODE_1340153    	195.3428    	0.000000    	                	;
 NODE_1340656    	201.8712    	0.000000    	                	;
 NODE_4724029    	193.3965    	0.003333    	                	;
 NODE_1340130    	204.1412    	0.006250    	                	;
 NODE_1340133    	202.5680    	0.011250    	                	;
 NODE_1319703    	202.2704    	0.003333    	                	;
 NODE_1338723    	204.3418    	0.005000    	                	;
 NODE_1342800    	202.4077    	0.003808    	                	;
 NODE_1343000    	196.6559    	0.003333    	                	;
 NODE_1342469    	207.1524    	0.002917    	                	;
 NODE_1321390    	189.5503    	0.011246    	                	;
 NODE_1321290    	195.3001    	0.006250    	                	;
 NODE_1343010    	194.7772    	0.008333    	                	;
 NODE_1340085    	190.3466    	0.003750    	                	;
 NODE_1327372    	202.2834    	0.001667    	                	;
 NODE_1321875    	200.2260    	0.006250    	                	;
 NODE_1327380    	199.8174    	0.002325    	                	;
 NODE_1340088    	191.2238    	0.005833    	                	;
 NODE_1342482    	201.8573    	0.005417    	                	;
 NODE_1320205    	202.3967    	0.003750    	                	;
 NODE_1339275    	202.0938    	0.006250    	                	;
 NODE_1321856    	200.7690    	0.005000    	                	;
 NODE_1339836    	196.3681    	0.004583    	                	;
 NODE_1331036    	201.7797    	0.008750    	                	;
 NODE_1321857    	197.3976    	0.002917    	                	;
 NODE_1319445    	194.2684    	0.006050    	                	;
 NODE_1320760    	199.9461    	0.004583    	                	;
 NODE_1321858    	200.8693    	0.006146    	                	;
 NODE_1328534    	190.9651    	0.004583    	                	;
 NODE_1340053    	192.2722    	0.002917    	                	;
 NODE_1342977    	201.9991    	0.013471    	                	;
 NODE_1320763    	204.8155    	0.007500    	                	;
 NODE_1327373    	201.8246    	0.002983    	                	;
 NODE_1340055    	196.2395    	0.002083    	                	;
 NODE_1342982    	204.0234    	0.002500    	                	;
 NODE_1327374    	201.7577    	0.006250    	                	;
 NODE_1322905    	198.3884    	0.003750    	                	;
 NODE_1340060    	200.0444    	0.000417    	                	;
 NODE_1340062    	202.6797    	0.003333    	                	;
 NODE_1338731    	195.1876    	0.004583    	                	;
 NODE_1342988    	203.8618    	0.003750    	                	;
 NODE_1327367    	203.0530    	0.003750    	                	;
 NODE_1320278    	204.1687    	0.001667    	                	;
 NODE_1320121    	199.5974    	0.010417    	                	;
 NODE_1321866    	202.9268    	0.008333    	                	;
 NODE_1339299    	203.1615    	0.006250    	                	;
 NODE_1340067    	198.2687    	0.004167    	                	;
 NODE_1340070    	196.4751    	0.002500    	                	;
 NODE_1342461    	197.1498    	0.002917    	                	;
 NODE_1340075    	193.0931    	0.004583    	                	;
 NODE_1316128    	187.8118    	0.002500    	                	;
 NODE_1340147    	195.1690    	0.010417    	                	;
 NODE_1331624    	192.9424    	0.015479    	                	;
 NODE_1340142    	200.7815    	0.004583    	                	;
 NODE_1335571    	195.8567    	0.003750    	                	;
 NODE_1329581    	193.3416    	0.009167    	                	;
 NODE_1327314    	198.8000    	0.000000    	                	;
 NODE_1328550    	194.7233    	0.017954    	                	;
 NODE_1316347    	195.4834    	0.010417    	                	;
 NODE_1316348    	196.7417    	0.000833    	                	;
 NODE_1338449    	195.6209    	0.003333    	                	;
 NODE_1338189    	192.2491    	0.002500    	                	;
 NODE_1338409    	196.2505    	0.003750    	                	;
 NODE_1338411    	190.8305    	0.009671    	                	;
 NODE_1338772    	198.9292    	0.000000    	                	;
 NODE_1338782    	199.0312    	0.003333    	                	;
 NODE_1338786    	198.8828    	0.000000    	                	;
 NODE_1321770    	196.2003    	0.003750    	                	;
 NODE_1340660    	189.3956    	0.012083    	                	;
 NODE_1342801    	202.1783    	0.004167    	                	;
 NODE_1342802    	201.5403    	0.003333    	                	;
 NODE_1339335    	201.8014    	0.007917    	                	;
 NODE_1339340    	206.1340    	0.014133    	                	;
 NODE_1339344    	207.4235    	0.000000    	                	;
 NODE_1339345    	207.7265    	0.004900    	                	;
 NODE_1335567    	207.6534    	0.005000    	                	;
 NODE_1339347    	205.6369    	0.005417    	                	;
 NODE_1339352    	204.0203    	0.010833    	                	;
 NODE_1331289    	208.4206    	0.006667    	                	;
 NODE_1339357    	203.9727    	0.002917    	                	;
 NODE_1323189    	206.8519    	0.002500    	                	;
 NODE_1339361    	207.7294    	0.005000    	                	;
 NODE_1331625    	209.6768    	0.000000    	                	;
 NODE_1339565    	202.6767    	0.004167    	                	;
 NODE_4724014    	192.5822    	0.000000    	                	;
 NODE_4723999    	194.9317    	0.000000    	                	;
 NODE_4723969    	192.5533    	0.006250    	                	;
 NODE_1340128    	205.0071    	0.006667    	                	;
 NODE_1342796    	203.6475    	0.004583    	                	;
 NODE_1342466    	201.7929    	0.008333    	                	;
 NODE_1340076    	191.8637    	0.005000    	                	;
 NODE_1340077    	190.3901    	0.002500    	                	;
 NODE_1321871    	203.2213    	0.004167    	                	;
 NODE_1327378    	203.2633    	0.003333    	                	;
 NODE_1342476    	197.2666    	0.005000    	                	;
 NODE_1327371    	195.5989    	0.007083    	                	;
 NODE_1321872    	202.7955    	0.007083    	                	;
 NODE_1342477    	196.5513    	0.007083    	                	;
 NODE_1320202    	195.8223    	0.004167    	                	;
 NODE_1342478    	195.1104    	0.007500    	                	;
 NODE_1337995    	201.2342    	0.004167    	                	;
 NODE_1321876    	197.4140    	0.001250    	                	;
 NODE_1328525    	192.6710    	0.004167    	                	;
 NODE_1342481    	201.0325    	0.013750    	                	;
 NODE_1322274    	202.9230    	0.000000    	                	;
 NODE_1321293    	202.4948    	0.002500    	                	;
 NODE_1339837    	195.8627    	0.002083    	                	;
 NODE_1319444    	193.7161    	0.005833    	                	;
 NODE_1339279    	196.8718    	0.005417    	                	;
 NODE_1339280    	200.7220    	0.001667    	                	;
 NODE_1339838    	194.3758    	0.005833    	                	;
 NODE_1339839    	192.9475    	0.006667    	                	;
 NODE_1339840    	192.4494    	0.003333    	                	;
 NODE_1328529    	193.9729    	0.001667    	                	;
 NODE_1330890    	191.4621    	0.006667    	                	;
 NODE_1340052    	190.5572    	0.004583    	                	;
 NODE_1322901    	191.5807    	0.007500    	                	;
 NODE_1335793    	191.9055    	0.006667    	                	;
 NODE_1321860    	200.7049    	0.002500    	                	;
 NODE_1320282    	193.7653    	0.004583    	                	;
 NODE_1331293    	195.9039    	0.004583    	                	;
 NODE_1328539    	189.4919    	0.002500    	                	;
 NODE_1342980    	204.4562    	0.008333    	                	;
 NODE_1320274    	201.3685    	0.005233    	                	;
 NODE_1320766    	204.4906    	0.008383    	                	;
 NODE_1320940    	194.1376    	0.000000    	                	;
 NODE_1335606    	202.4694    	0.005000    	                	;
 NODE_1340066    	200.1948    	0.022083    	                	;
 NODE_1342990    	203.5756    	0.007500    	                	;
 NODE_1321283    	203.8048    	0.004329    	                	;
 NODE_1339297    	203.3948    	0.003333    	                	;
 NODE_1327376    	203.2147    	0.008000    	                	;
 NODE_1327383    	195.9465    	0.008750    	                	;
 NODE_1342263    	196.6636    	0.004167    	                	;
 NODE_1340073    	194.5045    	0.007917    	                	;
 NODE_1320198    	200.3637    	0.006250    	                	;
 NODE_1340146    	195.9597    	0.006888    	                	;
 NODE_1340148    	194.5608    	0.000000    	                	;
 NODE_1336623    	194.5910    	0.017917    	                	;
 NODE_1340669    	200.2124    	0.000000    	                	;
 NODE_1329579    	191.0254    	0.005000    	                	;
 NODE_1329583    	190.7568    	0.004558    	                	;
 NODE_1328857    	190.4778    	0.005000    	                	;
 NODE_1328547    	193.3369    	0.004167    	                	;
 NODE_1321409    	197.4722    	0.000417    	                	;
 NODE_1338188    	190.6837    	0.004167    	                	;
 NODE_1337966    	192.5868    	0.002917    	                	;
 NODE_1338981    	191.1139    	0.005417    	                	;
 NODE_1338331    	199.2015    	0.006667    	                	;
 NODE_1338778    	198.6966    	0.000000    	                	;
 NODE_1335507    	191.6274    	0.004583    	                	;
 NODE_1335510    	191.4129    	0.003333    	                	;
 NODE_1335512    	192.8206    	0.003750    	                	;
 NODE_1321769    	196.4700    	0.022142    	                	;
 NODE_1338867    	202.4838    	0.005833    	                	;
 NODE_1338875    	202.8794    	0.001667    	                	;
 NODE_1338877    	191.4396    	0.009338    	                	;
 NODE_1338878    	206.7041    	0.005563    	                	;
 NODE_1329125    	204.6860    	0.006913    	                	;
 NODE_1339342    	207.7927    	0.007917    	                	;
 NODE_1323183    	207.6958    	0.005417    	                	;
 NODE_1323184    	205.8526    	0.004167    	                	;
 NODE_1339354    	204.8617    	0.003750    	                	;
 NODE_1339355    	206.2810    	0.000000    	                	;
 NODE_1339359    	204.4024    	0.002500    	                	;
 NODE_1339360    	204.9910    	0.006667    	                	;
 NODE_1323193    	206.4393    	0.000000    	                	;
 NODE_1340858    	195.8364    	0.000000    	                	;
 NODE_1320378    	196.3339    	0.000000    	                	;
 NODE_1323192    	206.8910    	0.000000    	                	;
 NODE_1337565    	195.9942    	0.000000    	                	;
 NODE_1338781    	199.0004    	0.000000    	                	;
 NODE_1319448    	189.4048    	0.003333    	                	;
 NODE_1316125    	202.1999    	0.000000    	                	;
 NODE_1340658    	194.5580    	0.000000    	                	;
 NODE_1323194    	206.4189    	0.004004    	                	;
 NODE_1340129    	205.7812    	0.015858    	                	;
 NODE_1319701    	203.8536    	0.005833    	                	;
 NODE_1340137    	201.8637    	0.006354    	                	;
 NODE_1322620    	202.7717    	0.004583    	                	;
 NODE_1342798    	202.8183    	0.008254    	                	;
 NODE_1342999    	197.4660    	0.004167    	                	;
 NODE_1321870    	203.7836    	0.002083    	                	;
 NODE_1339306    	203.6632    	0.001667    	                	;
 NODE_1339307    	203.3408    	0.010833    	                	;
 NODE_1342471    	201.6969    	0.009583    	                	;
 NODE_1320201    	201.1472    	0.006333    	                	;
 NODE_1343005    	195.2518    	0.002917    	                	;
 NODE_1339312    	203.4486    	0.006692    	                	;
 NODE_1336746    	202.6438    	0.004167    	                	;
 NODE_1337999    	189.3349    	0.002083    	                	;
 NODE_1336574    	195.1397    	0.003333    	                	;
 NODE_1343009    	194.8325    	0.003333    	                	;
 NODE_1340086    	190.4810    	0.005000    	                	;
 NODE_1322914    	190.6891    	0.003750    	                	;
 NODE_1327364    	199.3440    	0.004583    	                	;
 NODE_1339519    	197.8552    	0.002500    	                	;
 NODE_1343013    	197.5655    	0.007500    	                	;
 NODE_1330889    	196.9773    	0.007083    	                	;
 NODE_1328532    	192.2152    	0.005417    	                	;
 NODE_1342972    	198.7574    	0.002917    	                	;
 NODE_1320761    	196.1021    	0.002917    	                	;
 NODE_1331637    	195.0058    	0.004167    	                	;
 NODE_1342975    	193.3871    	0.008333    	                	;
 NODE_1339287    	200.9834    	0.003750    	                	;
 NODE_1339288    	201.2377    	0.003567    	                	;
 NODE_1340054    	192.6065    	0.002917    	                	;
 NODE_1331636    	193.3073    	0.002083    	                	;
 NODE_1331635    	190.1657    	0.005833    	                	;
 NODE_1336436    	189.4857    	0.000833    	                	;
 NODE_1322903    	194.4045    	0.002917    	                	;
 NODE_1336238    	195.1547    	0.002500    	                	;
 NODE_1339292    	201.8021    	0.000833    	                	;
 NODE_1340058    	198.0399    	0.006667    	                	;
 NODE_1328544    	191.6747    	0.004692    	                	;
 NODE_1342984    	202.0235    	0.003750    	                	;
 NODE_1342986    	200.2289    	0.012158    	                	;
 NODE_1339293    	201.6263    	0.004583    	                	;
 NODE_1339294    	201.4851    	0.002917    	                	;
 NODE_1327381    	201.0143    	0.005000    	                	;
 NODE_1340063    	203.1485    	0.000833    	                	;
 NODE_1321726    	193.5908    	0.005000    	                	;
 NODE_1339296    	203.6411    	0.014742    	                	;
 NODE_1340862    	190.7850    	0.000417    	                	;
 NODE_1340069    	197.6871    	0.003750    	                	;
 NODE_1342259    	192.2991    	0.002917    	                	;
 NODE_1321867    	203.2776    	0.002917    	                	;
 NODE_1336752    	195.0610    	0.005833    	                	;
 NODE_1322910    	194.4094    	0.001250    	                	;
 NODE_1340662    	187.3995    	0.000000    	                	;
 NODE_1320380    	204.0279    	0.002917    	                	;
 NODE_1340666    	203.7529    	0.008750    	                	;
 NODE_1340665    	203.1069    	0.006383    	                	;
 NODE_1328561    	197.0391    	0.005833    	                	;
 NODE_1328562    	194.7481    	0.003750    	                	;
 NODE_1321986    	197.0448    	0.004583    	                	;
 NODE_1328549    	193.9024    	0.002917    	                	;
 NODE_1328558    	199.3311    	0.002083    	                	;
 NODE_1328560    	202.1301    	0.002083    	                	;
 NODE_1322427    	190.5952    	0.005000    	                	;
 NODE_1319797    	197.0429    	0.000000    	                	;
 NODE_1338332    	199.2231    	0.007433    	                	;
 NODE_1338775    	198.5524    	0.004583    	                	;
 NODE_1331617    	201.6808    	0.003333    	                	;
 NODE_1338865    	205.2221    	0.009717    	                	;
 NODE_1342806    	199.1424    	0.005833    	                	;
 NODE_1339334    	201.0354    	0.004167    	                	;
 NODE_1323180    	207.5987    	0.000417    	                	;
 NODE_1338733    	206.2086    	0.007500    	                	;
 NODE_1321722    	206.9603    	0.001250    	                	;
 NODE_1339350    	203.4048    	0.000000    	                	;
 NODE_1339356    	202.8278    	0.002083    	                	;
 NODE_1339365    	202.7562    	0.003333    	                	;
 NODE_1339566    	206.0338    	0.005833    	                	;
 NODE_1339341    	207.6135    	0.000000    	                	;
 NODE_1340861    	190.7365    	0.000000    	                	;
 NODE_1329129    	202.8250    	0.011946    	                	;
 NODE_1319710    	197.4804    	0.000000    	                	;
 NODE_1327363    	195.2214    	0.000000    	                	;
 NODE_1340134    	201.9709    	0.006250    	                	;
 NODE_1342465    	201.0256    	0.006250    	                	;
 NODE_1320199    	202.2645    	0.008333    	                	;
 NODE_1339304    	204.1934    	0.005833    	                	;
 NODE_1322911    	191.0722    	0.006250    	                	;
 NODE_1340078    	190.0497    	0.002917    	                	;
 NODE_1342470    	207.4859    	0.003750    	                	;
 NODE_1339309    	203.1274    	0.007917    	                	;
 NODE_1342473    	200.4551    	0.004583    	                	;
 NODE_1327379    	203.3155    	0.008750    	                	;
 NODE_1340082    	189.2547    	0.000000    	                	;
 NODE_1320270    	195.0648    	0.002917    	                	;
 NODE_1340084    	190.1175    	0.002083    	                	;
 NODE_1343012    	198.3559    	0.005417    	                	;
 NODE_1335791    	198.5421    	0.007500    	                	;
 NODE_1327385    	192.3238    	0.003333    	                	;
 NODE_1342483    	203.1708    	0.006667    	                	;
 NODE_1328526    	193.2187    	0.001250    	                	;
 NODE_1339277    	198.9084    	0.004167    	                	;
 NODE_1322899    	193.7950    	0.008333    	                	;
 NODE_1319446    	192.6298    	0.000833    	                	;
 NODE_1342970    	200.7355    	0.008333    	                	;
 NODE_1339282    	201.3785    	0.005000    	                	;
 NODE_1320125    	190.7506    	0.000417    	                	;
 NODE_1319447    	190.2625    	0.003333    	                	;
 NODE_1322448    	204.2392    	0.007917    	                	;
 NODE_1322902    	193.1515    	0.005662    	                	;
 NODE_1335799    	189.7159    	0.009675    	                	;
 NODE_1339289    	201.4685    	0.002917    	                	;
 NODE_1328537    	189.4524    	0.005000    	                	;
 NODE_1321862    	202.2675    	0.004583    	                	;
 NODE_1335790    	201.8952    	0.000000    	                	;
 NODE_1319450    	192.0610    	0.002500    	                	;
 NODE_1321863    	201.4542    	0.001250    	                	;
 NODE_1339295    	203.8827    	0.000000    	                	;
 NODE_1321864    	204.1071    	0.002500    	                	;
 NODE_1322907    	201.7592    	0.001667    	                	;
 NODE_1342991    	203.8816    	0.003750    	                	;
 NODE_1339298    	203.0781    	0.000000    	                	;
 NODE_1342994    	207.7033    	0.005417    	                	;
 NODE_1336234    	203.5252    	0.003750    	                	;
 NODE_1342260    	193.7632    	0.005000    	                	;
 NODE_1342996    	207.2167    	0.005000    	                	;
 NODE_1320114    	203.4510    	0.007083    	                	;
 NODE_1330883    	203.7246    	0.004583    	                	;
 NODE_1327377    	202.8679    	0.005417    	                	;
 NODE_1320197    	197.8110    	0.009167    	                	;
 NODE_1340668    	200.4715    	0.000000    	                	;
 NODE_1340664    	203.4229    	0.007500    	                	;
 NODE_1346756    	190.4850    	0.007096    	                	;
 NODE_1327959    	196.8263    	0.002083    	                	;
 NODE_1316346    	194.5897    	0.005000    	                	;
 NODE_1328556    	197.8903    	0.000000    	                	;
 NODE_1327572    	191.2949    	0.001667    	                	;
 NODE_1320560    	191.9451    	0.006250    	                	;
 NODE_1337968    	196.2916    	0.009583    	                	;
 NODE_1336769    	193.7764    	0.000000    	                	;
 NODE_1338133    	191.9612    	0.010417    	                	;
 NODE_1338770    	199.2087    	0.002500    	                	;
 NODE_1338783    	198.8549    	0.000000    	                	;
 NODE_1337720    	193.0759    	0.009583    	                	;
 NODE_1335509    	195.2648    	0.000417    	                	;
 NODE_1335511    	190.5070    	0.003750    	                	;
 NODE_1338866    	201.1999    	0.000417    	                	;
 NODE_1338868    	201.6256    	0.004167    	                	;
 NODE_1338869    	201.7403    	0.003750    	                	;
 NODE_1338873    	192.0315    	0.004583    	                	;
 NODE_1338881    	195.2334    	0.005000    	                	;
 NODE_1338882    	196.4995    	0.004583    	                	;
 NODE_1322622    	201.5067    	0.003333    	                	;
 NODE_1339333    	200.1709    	0.004167    	                	;
 NODE_1323179    	200.5543    	0.005833    	                	;
 NODE_1339337    	204.7307    	0.000000    	                	;
 NODE_1339338    	207.8604    	0.000000    	                	;
 NODE_1339339    	207.6177    	0.003333    	                	;
 NODE_1323181    	206.5457    	0.008750    	                	;
 NODE_1323058    	204.6880    	0.000000    	                	;
 NODE_1339570    	206.7434    	0.016804    	                	;
 NODE_4723984    	190.3952    	0.003750    	                	;
 NODE_1340860    	193.3060    	0.000000    	                	;
 NODE_1320382    	194.7863    	0.000000    	                	;
 NODE_1320159    	191.4862    	0.000000    	                	;
 NODE_1340663    	188.0181    	0.000000    	                	;
 NODE_1340150    	202.4547    	0.004233    	                	;
 NODE_1340132    	203.8501    	0.000000    	                	;
 NODE_1340139    	190.7827    	0.000000    	                	;
 NODE_1342791    	203.6419    	0.000000    	                	;
 NODE_1319709    	200.1164    	0.000000    	                	;
 NODE_1340655    	203.3338    	0.000000    	                	;
 NODE_1340657    	197.6554    	0.000000    	                	;
 NODE_1340156    	190.9064    	0.000000    	                	;
 NODE_1339303    	202.4555    	0.010833    	                	;
 NODE_1328528    	194.9886    	0.019742    	                	;
 NODE_8176606    	193.9713    	0.000000    	                	;
 NODE_1339572    	207.6221    	0.001250    	                	;
 NODE_1320155    	206.6590    	0.003750    	                	;
 NODE_1340127    	204.8424    	0.005417    	                	;
 NODE_1330757    	205.7154    	0.007083    	                	;
 NODE_1340135    	201.9881    	0.002083    	                	;
 NODE_1342797    	203.0137    	0.000000    	                	;
 NODE_1342467    	202.6569    	0.005138    	                	;
 NODE_1343001    	195.9951    	0.003750    	                	;
 NODE_1335794    	190.0514    	0.007083    	                	;
 NODE_1331291    	194.7024    	0.004583    	                	;
 NODE_1343003    	199.5033    	0.013025    	                	;
 NODE_1339310    	202.7742    	0.008217    	                	;
 NODE_1340081    	189.4500    	0.002083    	                	;
 NODE_1322912    	189.3727    	0.007917    	                	;
 NODE_1321874    	202.3592    	0.004167    	                	;
 NODE_1321292    	199.3608    	0.011413    	                	;
 NODE_1340089    	191.8485    	0.004583    	                	;
 NODE_1327365    	203.6902    	0.005417    	                	;
 NODE_1339276    	200.2272    	0.006721    	                	;
 NODE_1328531    	193.0719    	0.004167    	                	;
 NODE_1342971    	199.4567    	0.003750    	                	;
 NODE_1342973    	197.7225    	0.022083    	                	;
 NODE_1339283    	201.7488    	0.002500    	                	;
 NODE_1328535    	190.5300    	0.006250    	                	;
 NODE_1342979    	204.1582    	0.005000    	                	;
 NODE_1321861    	204.0660    	0.004167    	                	;
 NODE_1340056    	196.9818    	0.004583    	                	;
 NODE_1328538    	189.4109    	0.000000    	                	;
 NODE_1320764    	204.3826    	0.010417    	                	;
 NODE_1322452    	202.3859    	0.004167    	                	;
 NODE_1319449    	189.9015    	0.003333    	                	;
 NODE_1342987    	204.5085    	0.003750    	                	;
 NODE_1327382    	199.9784    	0.001667    	                	;
 NODE_1342992    	204.6831    	0.003333    	                	;
 NODE_1342993    	205.7091    	0.004167    	                	;
 NODE_1340661    	187.0615    	0.000000    	                	;
 NODE_1340143    	207.4384    	0.008333    	                	;
 NODE_1327962    	194.5496    	0.004583    	                	;
 NODE_1328661    	197.9074    	0.002083    	                	;
 NODE_1336757    	195.0977    	0.004583    	                	;
 NODE_1316349    	198.4929    	0.004167    	                	;
 NODE_1331620    	200.6865    	0.001667    	                	;
 NODE_1319793    	196.7284    	0.010000    	                	;
 NODE_1337847    	192.6819    	0.003333    	                	;
 NODE_1337848    	193.0363    	0.001667    	                	;
 NODE_1319563    	193.6111    	0.001250    	                	;
 NODE_1331295    	195.9253    	0.008750    	                	;