[TITLE]
Converted from Epanet to Staci, case name: ivan.spr


[JUNCTIONS]
;ID              	Elev        	Demand      	Pattern         
 NODE_1330954    	153.5102    	0.002500    	                	;
 NODE_1335737    	153.6579    	0.003333    	                	;
 NODE_1321034    	152.9366    	0.000000    	                	;
 NODE_1323198    	148.4637    	0.012083    	                	;
 NODE_1342956    	152.4101    	0.002083    	                	;
 NODE_1342950    	152.8614    	0.007083    	                	;
 NODE_1336710    	153.3905    	0.005000    	                	;
 NODE_1341523    	152.6711    	0.009583    	                	;
 NODE_1339086    	153.3808    	0.001667    	                	;
 NODE_1321017    	152.5760    	0.010000    	                	;
 NODE_1339577    	149.8517    	0.004583    	                	;
 NODE_1321025    	153.3200    	0.003333    	                	;
 NODE_1342280    	153.6892    	0.000833    	                	;
 NODE_1330956    	153.9040    	0.006250    	                	;
 NODE_1341744    	153.2948    	0.000000    	                	;
 NODE_1331030    	153.2158    	0.002500    	                	;
 NODE_1322634    	147.7778    	0.000417    	                	;
 NODE_1331016    	149.7548    	0.001250    	                	;
 NODE_1342294    	151.0227    	0.001250    	                	;
 NODE_1342288    	151.5001    	0.000833    	                	;
 NODE_1342322    	150.6072    	0.003750    	                	;
 NODE_1337095    	152.8699    	0.000833    	                	;
 NODE_1331194    	154.2118    	0.006250    	                	;
 NODE_1339617    	149.4890    	0.002917    	                	;
 NODE_1331023    	153.2411    	0.000833    	                	;
 NODE_1341743    	153.2265    	0.001667    	                	;
 NODE_1341749    	153.9748    	0.001250    	                	;
 NODE_1342818    	150.5707    	0.000417    	                	;
 NODE_1316150    	153.4671    	0.000000    	                	;
 NODE_1330949    	153.5470    	0.002917    	                	;
 NODE_1340174    	149.3073    	0.000000    	                	;
 NODE_1329123    	152.5483    	0.000000    	                	;
 NODE_1341522    	152.6741    	0.004167    	                	;
 NODE_1341760    	152.7181    	0.005000    	                	;
 NODE_1340864    	153.7071    	0.000000    	                	;
 NODE_1316153    	153.7494    	0.000000    	                	;
 NODE_1340164    	148.3751    	0.001250    	                	;
 NODE_1330950    	153.5780    	0.000000    	                	;
 NODE_1321018    	152.6427    	0.002083    	                	;
 NODE_1335592    	149.7007    	0.007500    	                	;
 NODE_1342944    	150.1477    	0.000000    	                	;
 NODE_1322129    	150.5126    	0.003750    	                	;
 NODE_1342828    	152.6141    	0.002083    	                	;
 NODE_1342945    	147.4277    	0.000000    	                	;
 NODE_1341761    	152.7549    	0.001250    	                	;
 NODE_1342808    	150.5303    	0.007083    	                	;
 NODE_1321787    	148.6158    	0.000000    	                	;
 NODE_1323206    	152.8023    	0.004167    	                	;
 NODE_1339583    	147.4337    	0.000833    	                	;
 NODE_1323195    	153.1401    	0.007083    	                	;
 NODE_1341521    	152.6571    	0.009167    	                	;
 NODE_1320143    	153.8323    	0.000000    	                	;
 NODE_1340183    	149.6928    	0.001667    	                	;
 NODE_1336621    	153.2191    	0.004583    	                	;
 NODE_1335610    	153.7633    	0.004167    	                	;
 NODE_1322972    	153.2514    	0.000417    	                	;
 NODE_1329124    	154.0927    	0.000417    	                	;
 NODE_1339613    	149.5742    	0.002083    	                	;
 NODE_1320386    	156.9079    	0.000000    	                	;
 NODE_1336987    	153.3725    	0.007917    	                	;
 NODE_1330945    	153.5197    	0.000417    	                	;
 NODE_1315894    	149.8139    	0.008333    	                	;
 NODE_1331482    	149.9161    	0.002083    	                	;
 NODE_1342279    	153.8289    	0.000000    	                	;
 NODE_1342317    	151.7112    	0.000000    	                	;
 NODE_1339095    	153.6684    	0.000833    	                	;
 NODE_1331014    	148.5299    	0.005000    	                	;
 NODE_1316149    	153.9060    	0.000000    	                	;
 NODE_1331496    	149.5276    	0.000000    	                	;
 NODE_1342302    	151.1725    	0.000000    	                	;
 NODE_1339612    	149.4455    	0.008333    	                	;
 NODE_1342812    	150.4982    	0.000000    	                	;
 NODE_1341745    	153.5481    	0.002917    	                	;
 NODE_1337563    	151.5637    	0.006250    	                	;
 NODE_1342324    	150.5146    	0.007917    	                	;
 NODE_1323209    	149.6694    	0.006667    	                	;
 NODE_1315898    	153.8899    	0.000417    	                	;
 NODE_1338721    	153.7895    	0.000000    	                	;
 NODE_1342299    	151.9975    	0.000000    	                	;
 NODE_1319821    	149.4949    	0.004167    	                	;
 NODE_1340383    	153.7270    	0.000000    	                	;
 NODE_1321595    	152.8785    	0.000000    	                	;
 NODE_1337084    	153.2621    	0.000417    	                	;
 NODE_1330957    	152.6145    	0.002500    	                	;
 NODE_1339087    	153.6504    	0.001667    	                	;
 NODE_1315895    	149.8441    	0.000000    	                	;
 NODE_1322638    	154.6347    	0.002083    	                	;
 NODE_1322963    	151.8779    	0.000000    	                	;
 NODE_1339097    	153.3790    	0.000000    	                	;
 NODE_1342955    	153.8407    	0.000000    	                	;
 NODE_1342954    	153.9691    	0.002500    	                	;
 NODE_1321597    	151.9708    	0.003333    	                	;
 NODE_1323196    	151.4255    	0.000000    	                	;
 NODE_1339083    	152.8107    	0.000417    	                	;
 NODE_1339593    	153.7807    	0.003333    	                	;
 NODE_1341757    	152.6659    	0.000000    	                	;
 NODE_1342298    	152.5868    	0.002917    	                	;
 NODE_1342323    	150.5127    	0.003750    	                	;
 NODE_1342297    	152.3327    	0.007917    	                	;
 NODE_1342821    	149.6012    	0.000833    	                	;
 NODE_1336484    	153.3210    	0.002500    	                	;
 NODE_1331027    	153.2591    	0.000000    	                	;
 NODE_1321031    	152.7051    	0.000000    	                	;
 NODE_1342810    	150.6467    	0.001667    	                	;
 NODE_1340172    	149.8154    	0.000417    	                	;
 NODE_1341759    	152.7392    	0.000000    	                	;
 NODE_1339574    	152.0362    	0.000000    	                	;
 NODE_1339608    	150.9655    	0.000000    	                	;
 NODE_1340168    	149.5303    	0.000000    	                	;
 NODE_1342948    	147.6413    	0.000000    	                	;
 NODE_1319173    	149.9312    	0.002500    	                	;
 NODE_1335563    	152.1846    	0.000000    	                	;
 NODE_1321027    	153.9226    	0.000000    	                	;
 NODE_1342827    	151.8753    	0.000000    	                	;
 NODE_1342825    	148.8154    	0.007917    	                	;
 NODE_1330898    	153.4669    	0.001667    	                	;
 NODE_1331090    	152.7928    	0.001667    	                	;
 NODE_1316151    	154.5550    	0.008750    	                	;
 NODE_1331018    	153.4545    	0.003333    	                	;
 NODE_1322625    	150.4772    	0.002500    	                	;
 NODE_1339599    	153.6428    	0.000000    	                	;
 NODE_1339609    	150.3908    	0.002500    	                	;
 NODE_1331017    	152.7257    	0.000417    	                	;
 NODE_1330961    	153.0685    	0.000000    	                	;
 NODE_1340171    	149.9199    	0.001250    	                	;
 NODE_1331026    	153.2719    	0.005833    	                	;
 NODE_1321028    	154.2128    	0.004583    	                	;
 NODE_1323210    	149.4574    	0.020000    	                	;
 NODE_1321032    	152.7653    	0.000000    	                	;
 NODE_1342826    	150.5841    	0.000000    	                	;
 NODE_1331013    	150.6631    	0.008750    	                	;
 NODE_1330946    	152.4123    	0.004167    	                	;
 NODE_1322122    	150.4200    	0.003333    	                	;
 NODE_1322637    	153.7241    	0.000000    	                	;
 NODE_1340182    	149.7179    	0.004167    	                	;
 NODE_1341767    	152.8261    	0.004167    	                	;
 NODE_1340388    	154.4515    	0.004167    	                	;
 NODE_1321784    	153.9883    	0.000000    	                	;
 NODE_1331086    	154.7334    	0.002500    	                	;
 NODE_1331298    	154.6565    	0.004167    	                	;
 NODE_1341526    	152.6021    	0.000000    	                	;
 NODE_1339085    	152.6908    	0.018750    	                	;
 NODE_1322635    	152.8264    	0.001250    	                	;
 NODE_1323202    	153.8978    	0.001667    	                	;
 NODE_1322736    	152.7430    	0.000000    	                	;
 NODE_1315897    	153.9710    	0.000417    	                	;
 NODE_1342813    	150.5660    	0.001250    	                	;
 NODE_1335736    	153.1208    	0.018750    	                	;
 NODE_1323203    	152.9536    	0.003333    	                	;
 NODE_1320556    	152.6663    	0.002500    	                	;
 NODE_1330962    	152.3628    	0.000000    	                	;
 NODE_1331022    	152.8341    	0.005417    	                	;
 NODE_1339580    	148.9298    	0.001667    	                	;
 NODE_1341764    	152.8299    	0.006667    	                	;
 NODE_1340163    	148.2412    	0.002083    	                	;
 NODE_1340381    	153.3274    	0.001667    	                	;
 NODE_1321723    	148.7684    	0.004167    	                	;
 NODE_1342292    	154.0892    	0.000000    	                	;
 NODE_1339592    	154.0709    	0.008333    	                	;
 NODE_1341531    	152.6899    	0.006667    	                	;
 NODE_1342311    	151.5287    	0.000000    	                	;
 NODE_1330952    	153.8178    	0.000000    	                	;
 NODE_1342807    	150.5358    	0.004583    	                	;
 NODE_1321022    	152.7053    	0.002083    	                	;
 NODE_1340178    	149.4976    	0.000417    	                	;
 NODE_1342304    	150.4714    	0.001667    	                	;
 NODE_1322631    	150.9523    	0.000000    	                	;
 NODE_1338552    	150.9142    	0.003333    	                	;
 NODE_1338548    	152.8607    	0.000000    	                	;
 NODE_1331028    	153.2221    	0.000000    	                	;
 NODE_1340170    	149.8819    	0.001250    	                	;
 NODE_1342296    	151.7060    	0.005417    	                	;
 NODE_1342281    	153.5729    	0.002917    	                	;
 NODE_1330901    	153.8962    	0.000000    	                	;
 NODE_1339078    	150.1079    	0.003750    	                	;
 NODE_1335613    	149.3704    	0.003333    	                	;
 NODE_1339618    	148.8278    	0.000000    	                	;
 NODE_1342817    	150.6655    	0.006250    	                	;
 NODE_1339089    	154.6240    	0.005833    	                	;
 NODE_1322628    	150.5608    	0.002500    	                	;
 NODE_1323055    	154.4977    	0.002917    	                	;
 NODE_1342318    	151.3544    	0.000417    	                	;
 NODE_1339576    	150.6003    	0.000417    	                	;
 NODE_1322626    	150.5024    	0.001250    	                	;
 NODE_1336432    	152.1166    	0.007500    	                	;
 NODE_1339607    	151.3929    	0.002500    	                	;
 NODE_1341769    	152.1910    	0.005000    	                	;
 NODE_1323199    	147.4938    	0.001250    	                	;
 NODE_1341755    	152.2959    	0.007917    	                	;
 NODE_1341533    	152.8808    	0.006250    	                	;
 NODE_1340386    	153.7464    	0.001250    	                	;
 NODE_1341529    	152.5876    	0.000000    	                	;
 NODE_1342946    	152.4249    	0.000000    	                	;
 NODE_1342952    	153.9504    	0.003333    	                	;
 NODE_1335569    	149.6531    	0.006667    	                	;
 NODE_1331019    	153.7373    	0.003333    	                	;
 NODE_1339591    	154.2018    	0.001250    	                	;
 NODE_1331506    	153.8586    	0.002917    	                	;
 NODE_1342947    	154.9238    	0.000000    	                	;
 NODE_1342811    	150.4805    	0.000833    	                	;
 NODE_1342822    	149.5899    	0.004583    	                	;
 NODE_1340177    	153.3344    	0.000000    	                	;
 NODE_1340865    	153.5213    	0.000833    	                	;
 NODE_1321023    	152.8808    	0.002917    	                	;
 NODE_1342286    	152.6699    	0.002083    	                	;
 NODE_1340161    	148.0736    	0.000000    	                	;
 NODE_1341750    	153.9496    	0.000000    	                	;
 NODE_1339597    	153.1257    	0.002917    	                	;
 NODE_1331012    	150.6561    	0.002917    	                	;
 NODE_1341754    	152.2792    	0.000000    	                	;
 NODE_1342289    	151.0341    	0.010417    	                	;
 NODE_1337731    	150.5056    	0.007917    	                	;
 NODE_1342312    	152.4164    	0.000000    	                	;
 NODE_1315896    	153.4691    	0.000000    	                	;
 NODE_1342300    	151.8557    	0.002500    	                	;
 NODE_1331010    	150.4872    	0.000000    	                	;
 NODE_1342316    	151.8712    	0.002500    	                	;
 NODE_1323201    	154.6253    	0.005417    	                	;
 NODE_1339079    	149.1165    	0.003750    	                	;
 NODE_1339094    	154.2584    	0.002083    	                	;
 NODE_1338702    	152.6732    	0.010833    	                	;
 NODE_1338728    	154.7063    	0.000417    	                	;
 NODE_1340384    	153.7775    	0.002917    	                	;
 NODE_1323200    	154.3217    	0.000000    	                	;
 NODE_1341756    	152.6645    	0.000000    	                	;
 NODE_1339082    	153.4997    	0.002500    	                	;
 NODE_1339589    	154.8866    	0.006667    	                	;
 NODE_1339605    	152.3072    	0.004167    	                	;
 NODE_1339614    	149.7694    	0.006250    	                	;
 NODE_1340180    	149.5650    	0.000000    	                	;
 NODE_1322629    	150.0675    	0.003333    	                	;
 NODE_1329121    	153.6385    	0.000000    	                	;
 NODE_1340167    	149.3600    	0.010000    	                	;
 NODE_1322124    	151.7012    	0.000000    	                	;
 NODE_1340379    	153.0369    	0.000000    	                	;
 NODE_1330902    	154.5768    	0.004583    	                	;
 NODE_1331021    	153.7789    	0.006250    	                	;
 NODE_1327387    	149.0577    	0.006250    	                	;
 NODE_1341747    	153.9368    	0.002500    	                	;
 NODE_1339081    	147.9011    	0.003750    	                	;
 NODE_1338558    	154.0165    	0.005000    	                	;
 NODE_1342290    	152.8339    	0.000000    	                	;
 NODE_1339616    	149.7511    	0.005000    	                	;
 NODE_1321030    	152.6653    	0.002917    	                	;
 NODE_1341766    	152.8711    	0.001667    	                	;
 NODE_1331029    	153.1948    	0.007083    	                	;
 NODE_1340157    	148.0887    	0.003750    	                	;
 NODE_1340387    	154.1059    	0.000000    	                	;
 NODE_1321019    	152.7043    	0.000000    	                	;
 NODE_1342303    	150.9741    	0.002500    	                	;
 NODE_1342820    	150.3178    	0.004583    	                	;
 NODE_1339595    	152.7871    	0.005833    	                	;
 NODE_1319711    	149.8879    	0.000000    	                	;
 NODE_1315427    	153.3951    	0.000000    	                	;
 NODE_1339598    	153.5281    	0.005000    	                	;
 NODE_1331202    	154.5438    	0.000000    	                	;
 NODE_1339084    	152.6971    	0.000833    	                	;
 NODE_1323204    	153.3317    	0.000417    	                	;
 NODE_1319713    	149.4624    	0.000000    	                	;
 NODE_1341768    	152.8197    	0.000000    	                	;
 NODE_1339601    	153.9882    	0.003750    	                	;
 NODE_1322627    	150.6582    	0.000000    	                	;
 NODE_1339578    	149.7175    	0.000000    	                	;
 NODE_1339604    	152.5094    	0.004167    	                	;
 NODE_1322741    	150.5148    	0.001250    	                	;
 NODE_1342809    	150.6754    	0.000417    	                	;
 NODE_1341752    	152.9220    	0.000000    	                	;
 NODE_1331020    	153.8332    	0.000000    	                	;
 NODE_1340162    	148.2097    	0.002917    	                	;
 NODE_1319996    	153.2648    	0.003750    	                	;
 NODE_1331297    	151.1314    	0.002917    	                	;
 NODE_1342307    	150.9047    	0.003333    	                	;
 NODE_1340166    	149.2482    	0.000833    	                	;
 NODE_1328489    	153.2535    	0.000000    	                	;
 NODE_1330900    	154.2228    	0.001250    	                	;
 NODE_1342308    	150.9371    	0.000833    	                	;
 NODE_1339080    	147.9859    	0.003750    	                	;
 NODE_1340380    	153.7512    	0.000000    	                	;
 NODE_1322126    	151.4057    	0.000000    	                	;
 NODE_1342305    	150.3359    	0.005000    	                	;
 NODE_1331491    	151.1557    	0.000000    	                	;
 NODE_1321592    	153.0079    	0.000000    	                	;
 NODE_1339088    	154.5000    	0.005833    	                	;
 NODE_1322641    	151.8896    	0.000000    	                	;
 NODE_1330960    	151.9266    	0.000000    	                	;
 NODE_1340382    	153.4208    	0.000833    	                	;
 NODE_1341742    	153.0310    	0.000000    	                	;
 NODE_1316152    	153.7830    	0.002500    	                	;
 NODE_1320156    	148.6035    	0.001667    	                	;
 NODE_1341524    	152.7160    	0.005417    	                	;
 NODE_1341771    	150.4666    	0.000000    	                	;
 NODE_1322633    	149.3167    	0.000000    	                	;
 NODE_1320384    	153.8487    	0.000000    	                	;
 NODE_1331024    	153.2388    	0.000000    	                	;
 NODE_1341527    	152.5723    	0.005833    	                	;
 NODE_1322123    	152.0490    	0.002500    	                	;
 NODE_1340169    	149.6590    	0.000833    	                	;
 NODE_1339582    	147.4494    	0.000417    	                	;
 NODE_1330899    	153.5214    	0.003750    	                	;
 NODE_1323059    	153.6579    	0.000000    	                	;
 NODE_1339573    	152.6499    	0.000417    	                	;
 NODE_1341520    	152.5951    	0.000000    	                	;
 NODE_1342284    	152.9975    	0.000000    	                	;
 NODE_1319712    	149.5763    	0.000417    	                	;
 NODE_1342819    	150.4488    	0.002917    	                	;
 NODE_1340385    	153.5036    	0.000000    	                	;
 NODE_1331214    	150.6547    	0.002500    	                	;
 NODE_1322624    	150.7106    	0.006667    	                	;
 NODE_1341770    	151.8464    	0.002500    	                	;
 NODE_1340179    	149.4657    	0.002917    	                	;
 NODE_1321410    	153.5647    	0.000000    	                	;
 NODE_1331015    	148.3479    	0.005000    	                	;
 NODE_1322617    	150.6251    	0.000000    	                	;
 NODE_1342321    	150.7184    	0.002500    	                	;
 NODE_1335735    	152.8952    	0.006250    	                	;
 NODE_1339098    	152.0522    	0.000000    	                	;
 NODE_1319633    	152.8272    	0.005833    	                	;
 NODE_1321786    	152.0704    	0.000000    	                	;
 NODE_1322740    	152.1423    	0.000000    	                	;
 NODE_1342943    	153.1914    	0.003750    	                	;
 NODE_1341765    	152.9729    	0.001667    	                	;
 NODE_1339587    	154.0660    	0.000000    	                	;
 NODE_1339584    	153.8326    	0.000000    	                	;
 NODE_1342283    	153.2658    	0.007500    	                	;
 NODE_1339581    	148.2524    	0.000000    	                	;
 NODE_1339600    	153.8649    	0.006250    	                	;
 NODE_1322632    	150.7777    	0.000417    	                	;
 NODE_1342313    	151.6879    	0.000000    	                	;
 NODE_1321166    	148.5817    	0.000000    	                	;
 NODE_1330951    	153.5691    	0.000000    	                	;
 NODE_1339594    	152.8219    	0.000000    	                	;
 NODE_1330943    	153.6005    	0.005833    	                	;
 NODE_1341525    	152.6669    	0.000000    	                	;
 NODE_1339603    	153.6110    	0.000833    	                	;
 NODE_1342815    	150.6180    	0.004583    	                	;
 NODE_1339611    	149.5711    	0.010000    	                	;
 NODE_1323207    	151.7355    	0.002083    	                	;
 NODE_1342942    	154.1027    	0.000417    	                	;
 NODE_1320554    	149.7031    	0.003750    	                	;
 NODE_1338525    	154.2803    	0.001250    	                	;
 NODE_1341762    	152.7852    	0.008750    	                	;
 NODE_1342315    	153.4312    	0.000000    	                	;
 NODE_1337732    	151.8087    	0.007500    	                	;
 NODE_1342816    	150.6462    	0.002083    	                	;
 NODE_1320149    	153.0340    	0.003750    	                	;
 NODE_1322630    	148.8635    	0.002083    	                	;
 NODE_1323060    	148.2216    	0.004167    	                	;
 NODE_1321599    	151.7000    	0.004167    	                	;
 NODE_1341772    	153.8638    	0.000000    	                	;
 NODE_1339575    	150.5043    	0.001250    	                	;
 NODE_1321020    	152.6968    	0.000417    	                	;
 NODE_1322125    	151.9865    	0.000000    	                	;
 NODE_1339586    	153.5587    	0.002083    	                	;
 NODE_1339585    	153.9451    	0.002083    	                	;
 NODE_1335739    	152.7231    	0.000000    	                	;
 NODE_1337803    	153.1696    	0.002500    	                	;
 NODE_1331497    	154.7614    	0.000000    	                	;
 NODE_1339093    	154.5590    	0.004167    	                	;
 NODE_1331503    	152.5771    	0.000000    	                	;
 NODE_1327388    	154.2137    	0.000000    	                	;
 NODE_1321720    	151.2921    	0.000000    	                	;
 NODE_1330947    	151.1726    	0.000000    	                	;
 NODE_1331488    	150.8280    	0.002500    	                	;
 NODE_1341763    	152.8232    	0.001667    	                	;
 NODE_1342309    	151.1777    	0.001250    	                	;
 NODE_1342824    	148.6295    	0.001250    	                	;
 NODE_1330959    	152.4819    	0.007083    	                	;
 NODE_1335734    	154.6143    	0.001250    	                	;
 NODE_1321036    	150.9092    	0.005417    	                	;
 NODE_1336003    	154.5420    	0.000000    	                	;
 NODE_1342319    	151.0294    	0.006667    	                	;
 NODE_1321596    	150.7480    	0.000417    	                	;
 NODE_1342951    	153.1954    	0.001250    	                	;
 NODE_1321024    	153.1753    	0.000000    	                	;
 NODE_1339602    	153.7346    	0.005833    	                	;
 NODE_1330944    	153.8212    	0.000417    	                	;
 NODE_1339579    	149.6426    	0.000000    	                	;
 NODE_1331011    	151.4456    	0.000000    	                	;
 NODE_1316148    	153.1131    	0.000000    	                	;
 NODE_1341519    	152.5879    	0.007083    	                	;
 NODE_1330955    	154.7773    	0.012083    	                	;
 NODE_1321593    	152.8283    	0.003333    	                	;
 NODE_1340158    	148.3873    	0.000000    	                	;
 NODE_1322962    	151.8688    	0.030833    	                	;
 NODE_1341753    	154.2567    	0.000000    	                	;
 NODE_1342295    	151.3179    	0.003333    	                	;
 NODE_1330958    	153.3229    	0.002083    	                	;
 NODE_1321033    	152.8304    	0.002500    	                	;
 NODE_1341532    	152.7559    	0.003333    	                	;
 NODE_1327389    	152.4729    	0.000417    	                	;
 NODE_1322128    	150.6418    	0.000833    	                	;
 NODE_1340863    	154.2576    	0.001250    	                	;
 NODE_1319175    	148.2437    	0.000000    	                	;
 NODE_1320355    	153.6991    	0.003333    	                	;
 NODE_1338551    	153.9527    	0.004167    	                	;
 NODE_1339590    	154.2747    	0.003750    	                	;
 NODE_1315899    	154.3988    	0.000000    	                	;
 NODE_1321598    	152.3481    	0.000000    	                	;
 NODE_1339588    	154.7260    	0.000000    	                	;
 NODE_1330953    	154.8944    	0.000000    	                	;
 NODE_1342285    	152.8090    	0.003333    	                	;
 NODE_1340173    	149.7379    	0.003750    	                	;
 NODE_1330948    	149.9033    	0.000000    	                	;
 NODE_1323208    	151.0806    	0.002500    	                	;
 NODE_1342953    	153.7268    	0.006667    	                	;
 NODE_1321021    	152.6177    	0.000000    	                	;
 NODE_1342310    	151.3336    	0.003333    	                	;
 NODE_1341746    	153.6536    	0.003750    	                	;
 NODE_1342293    	154.3553    	0.001250    	                	;
 NODE_1319174    	149.3143    	0.003333    	                	;
 NODE_1342287    	151.7945    	0.000417    	                	;
 NODE_1322640    	153.5814    	0.010000    	                	;
 NODE_1341748    	153.9283    	0.001250    	                	;
 NODE_1342814    	150.8942    	0.000000    	                	;
 NODE_1339596    	153.0411    	0.003333    	                	;
 NODE_1331193    	153.8439    	0.002500    	                	;
 NODE_1329122    	152.7412    	0.000000    	                	;
 NODE_1320385    	156.9044    	0.000000    	                	;
 NODE_1327386    	151.3534    	0.001250    	                	;
 NODE_1335738    	152.4213    	0.000000    	                	;
 NODE_1322639    	154.3636    	0.005833    	                	;
 NODE_1340175    	152.5905    	0.004167    	                	;
 NODE_1342823    	149.1805    	0.000417    	                	;
 NODE_1340181    	149.6001    	0.003750    	                	;
 NODE_1320377    	149.5062    	0.000000    	                	;
 NODE_1336985    	153.6774    	0.001250    	                	;
 NODE_1331025    	153.2699    	0.000833    	                	;
 NODE_1338725    	148.3925    	0.002083    	                	;
 NODE_1339606    	152.1089    	0.004583    	                	;
 NODE_1341758    	152.7260    	0.007500    	                	;
 NODE_1321789    	153.2578    	0.000000    	                	;
 NODE_1322127    	150.9836    	0.003750    	                	;
 NODE_1318205    	152.8552    	0.000000    	                	;
 NODE_1340160    	148.2470    	0.000833    	                	;
 NODE_1331121    	152.8323    	0.000000    	                	;
 NODE_1321026    	153.7817    	0.000000    	                	;
 NODE_1339090    	154.8524    	0.004167    	                	;
 NODE_1341518    	152.5182    	0.000000    	                	;
 NODE_1339092    	154.8211    	0.002500    	                	;
 NODE_1339610    	149.6435    	0.002917    	                	;
 NODE_1339096    	153.4359    	0.006250    	                	;
 NODE_1338557    	150.3268    	0.003750    	                	;
 NODE_1331009    	151.2149    	0.002917    	                	;
 NODE_1331199    	154.6973    	0.005000    	                	;
 NODE_1323205    	154.1458    	0.005417    	                	;
 NODE_1339091    	154.8363    	0.002500    	                	;
 NODE_1321719    	151.6716    	0.005417    	                	;
 NODE_1320555    	150.7010    	0.006250    	                	;
 NODE_1342301    	151.4352    	0.004583    	                	;
 NODE_1321721    	152.8200    	0.000833    	                	;
 NODE_1321035    	152.4550    	0.000000    	                	;
 NODE_1327570    	149.3063    	0.000833    	                	;
 NODE_1341530    	152.6358    	0.000000    	                	;
 NODE_1342306    	150.0813    	0.000000    	                	;
 NODE_1323197    	149.4543    	0.002917    	                	;
 NODE_1342829    	150.1152    	0.003750    	                	;
 NODE_1340867    	156.9062    	0.007500    	                	;
 NODE_1322745    	150.5059    	0.002917    	                	;
 NODE_1341528    	152.5555    	0.007083    	                	;
 NODE_1340165    	148.8236    	0.002917    	                	;
 NODE_1339615    	149.8588    	0.001250    	                	;
 NODE_1321594    	150.1513    	0.007083    	                	;
 NODE_1322636    	153.0587    	0.105833    	                	;
 NODE_1340184    	149.7425    	0.003750    	                	;
 NODE_1342282    	152.9310    	0.001667    	                	;
 NODE_1340159    	148.2399    	0.001667    	                	;
 NODE_10826252   	152.4420    	0.000833    	                	;
 NODE_1342320    	150.8654    	0.010833    	                	;
 NODE_12636      	153.0907    	0.000000    	                	;
 NODE_12636_1    	153.1287    	0.000000    	                	;
 NODE_1345553    	152.0311    	0.000000    	                	;
 NODE_1345748    	152.8610    	0.000000    	                	;
 NODE_12618      	152.0648    	0.000000    	                	;
 NODE_12618_1    	152.0558    	0.000000    	                	;