[TITLE]
Converted from Epanet to Staci, case name: kofejto.spr


[JUNCTIONS]
;ID              	Elev        	Demand      	Pattern         
 NODE_1321178    	168.9826    	0.003333    	                	;
 NODE_1334123    	150.1267    	0.000833    	                	;
 NODE_1340826    	161.0383    	0.000000    	                	;
 NODE_1333598    	150.6079    	0.005417    	                	;
 NODE_1333628    	154.3855    	0.005417    	                	;
 NODE_1333634    	176.1930    	0.000833    	                	;
 NODE_1338694    	165.0285    	0.000000    	                	;
 NODE_1322531    	165.0632    	0.000000    	                	;
 NODE_1322723    	166.3704    	0.000000    	                	;
 NODE_1334779    	169.6511    	0.000000    	                	;
 NODE_1334778    	170.0114    	0.008333    	                	;
 NODE_1334775    	166.2801    	0.005000    	                	;
 NODE_1322012    	167.3801    	0.003333    	                	;
 NODE_1319615    	158.4356    	0.000000    	                	;
 NODE_1319935    	166.8579    	0.000000    	                	;
 NODE_1337557    	167.4151    	0.002917    	                	;
 NODE_1319934    	152.5838    	0.004583    	                	;
 NODE_1340832    	156.6945    	0.002083    	                	;
 NODE_1319933    	156.2236    	0.002083    	                	;
 NODE_1331889    	140.3199    	0.000000    	                	;
 NODE_1319932    	142.6716    	0.005833    	                	;
 NODE_1340828    	143.5273    	0.004167    	                	;
 NODE_1318099    	155.1728    	0.003333    	                	;
 NODE_1319435    	155.7445    	0.000000    	                	;
 NODE_1316771    	154.2800    	0.004167    	                	;
 NODE_1331841    	155.3526    	0.012500    	                	;
 NODE_1319937    	154.7395    	0.002500    	                	;
 NODE_1340842    	152.6646    	0.000000    	                	;
 NODE_1340841    	152.1643    	0.000417    	                	;
 NODE_1319936    	151.4746    	0.000000    	                	;
 NODE_1316092    	153.0754    	0.003750    	                	;
 NODE_1318755    	167.8109    	0.000000    	                	;
 NODE_1322218    	167.5902    	0.006667    	                	;
 NODE_1333596    	149.7453    	0.005417    	                	;
 NODE_1333811    	162.7418    	0.016667    	                	;
 NODE_1316343    	161.8215    	0.004583    	                	;
 NODE_1316095    	166.6967    	0.005833    	                	;
 NODE_1331858    	148.1281    	0.004167    	                	;
 NODE_1316776    	148.0562    	0.003750    	                	;
 NODE_1334792    	160.5993    	0.000000    	                	;
 NODE_1334790    	159.3562    	0.008333    	                	;
 NODE_1334787    	157.7819    	0.002917    	                	;
 NODE_1334781    	156.4834    	0.003750    	                	;
 NODE_1337353    	167.0223    	0.005000    	                	;
 NODE_1333116    	165.1689    	0.000000    	                	;
 NODE_1327161    	153.2677    	0.003333    	                	;
 NODE_1331264    	148.1122    	0.003333    	                	;
 NODE_1331267    	151.1127    	0.001667    	                	;
 NODE_1337661    	166.2280    	0.002083    	                	;
 NODE_1332961    	164.7342    	0.000000    	                	;
 NODE_1333620    	166.0231    	0.006667    	                	;
 NODE_1333623    	174.1194    	0.003333    	                	;
 NODE_1318918    	142.4485    	0.005833    	                	;
 NODE_1334121    	169.7996    	0.002917    	                	;
 NODE_1332956    	151.3710    	0.000000    	                	;
 NODE_1337371    	162.2212    	0.001667    	                	;
 NODE_1334785    	155.6019    	0.001667    	                	;
 NODE_1316495    	142.6157    	0.005000    	                	;
 NODE_1333633    	179.0255    	0.010833    	                	;
 NODE_1332376    	162.9814    	0.007917    	                	;
 NODE_1334318    	165.7103    	0.003750    	                	;
 NODE_1316820    	151.8826    	0.003333    	                	;
 NODE_1317380    	158.6747    	0.047500    	                	;
 NODE_1331674    	159.1917    	0.000000    	                	;
 NODE_1340837    	167.2326    	0.001250    	                	;
 NODE_1340833    	152.8425    	0.001667    	                	;
 NODE_1340830    	151.1915    	0.003750    	                	;
 NODE_1340829    	143.7823    	0.005000    	                	;
 NODE_1332748    	146.8423    	0.006250    	                	;
 NODE_1331849    	155.1832    	0.003333    	                	;
 NODE_1316772    	150.7745    	0.002083    	                	;
 NODE_1331845    	151.9364    	0.005417    	                	;
 NODE_1331840    	155.5027    	0.008333    	                	;
 NODE_1340843    	154.8132    	0.006667    	                	;
 NODE_1333793    	148.1358    	0.005000    	                	;
 NODE_1321169    	172.3820    	0.000833    	                	;
 NODE_1332392    	158.4166    	0.000417    	                	;
 NODE_1317632    	167.1955    	0.000000    	                	;
 NODE_1318754    	171.1603    	0.012917    	                	;
 NODE_1333594    	144.5632    	0.007917    	                	;
 NODE_1316283    	165.6409    	0.002917    	                	;
 NODE_1321683    	162.6592    	0.002500    	                	;
 NODE_1316783    	167.2406    	0.004583    	                	;
 NODE_1337280    	166.9669    	0.003333    	                	;
 NODE_1331868    	175.6562    	0.002500    	                	;
 NODE_1322007    	166.2006    	0.002083    	                	;
 NODE_1331861    	145.3792    	0.000000    	                	;
 NODE_1334782    	157.1524    	0.001250    	                	;
 NODE_1316093    	153.2910    	0.004583    	                	;
 NODE_1327428    	153.6959    	0.007917    	                	;
 NODE_1331134    	179.3552    	0.000000    	                	;
 NODE_1337821    	150.2435    	0.000833    	                	;
 NODE_1331269    	143.6800    	0.009167    	                	;
 NODE_1337086    	166.1691    	0.000000    	                	;
 NODE_1337722    	150.0610    	0.000000    	                	;
 NODE_1327107    	166.5837    	0.000417    	                	;
 NODE_1316498    	141.5363    	0.000000    	                	;
 NODE_1332962    	151.4609    	0.000000    	                	;
 NODE_1333624    	177.7625    	0.001250    	                	;
 NODE_1333627    	152.9172    	0.002500    	                	;
 NODE_1334124    	153.7542    	0.000833    	                	;
 NODE_1335360    	151.1211    	0.000000    	                	;
 NODE_1334992    	172.9086    	0.000833    	                	;
 NODE_1320032    	155.2393    	0.000000    	                	;
 NODE_1333589    	136.9606    	0.011667    	                	;
 NODE_1319079    	152.8627    	0.007500    	                	;
 NODE_10825876   	156.2874    	0.000833    	                	;
 NODE_1318545    	162.6120    	0.000000    	                	;
 NODE_1332218    	166.6053    	0.000000    	                	;
 NODE_1334772    	165.0725    	0.004167    	                	;
 NODE_1317222    	166.5883    	0.003333    	                	;
 NODE_1332216    	157.0798    	0.000000    	                	;
 NODE_1332214    	155.8509    	0.000000    	                	;
 NODE_1318547    	163.2387    	0.001250    	                	;
 NODE_1340834    	152.4563    	0.005000    	                	;
 NODE_1340808    	151.2251    	0.007917    	                	;
 NODE_1318549    	165.8228    	0.010833    	                	;
 NODE_1331894    	151.7403    	0.000000    	                	;
 NODE_1332751    	154.8896    	0.000417    	                	;
 NODE_1319368    	153.8797    	0.010417    	                	;
 NODE_1332742    	162.2189    	0.000000    	                	;
 NODE_1331839    	156.3115    	0.008750    	                	;
 NODE_1333798    	153.0120    	0.002917    	                	;
 NODE_1316091    	151.9930    	0.000417    	                	;
 NODE_1333794    	146.0686    	0.000833    	                	;
 NODE_1317634    	170.7646    	0.002083    	                	;
 NODE_1333599    	150.7667    	0.000833    	                	;
 NODE_1332390    	165.2156    	0.009583    	                	;
 NODE_1316088    	150.4109    	0.003750    	                	;
 NODE_1316086    	140.7758    	0.010833    	                	;
 NODE_1333818    	165.7649    	0.004583    	                	;
 NODE_1331875    	166.2146    	0.000000    	                	;
 NODE_1333813    	166.4740    	0.000833    	                	;
 NODE_1316782    	163.2791    	0.005000    	                	;
 NODE_1333810    	162.2334    	0.002083    	                	;
 NODE_1316780    	178.5821    	0.004583    	                	;
 NODE_1331859    	149.2957    	0.005000    	                	;
 NODE_1334786    	155.8626    	0.010000    	                	;
 NODE_1334780    	155.8945    	0.002500    	                	;
 NODE_6259643    	152.7960    	0.007500    	                	;
 NODE_1331262    	149.5343    	0.005000    	                	;
 NODE_1331265    	147.8115    	0.002917    	                	;
 NODE_1331266    	145.1746    	0.005833    	                	;
 NODE_1331357    	151.1396    	0.005000    	                	;
 NODE_1334798    	148.9459    	0.000833    	                	;
 NODE_1332953    	174.7843    	0.000000    	                	;
 NODE_1322221    	167.1776    	0.000000    	                	;
 NODE_1332945    	172.3395    	0.000000    	                	;
 NODE_1334987    	167.7983    	0.006667    	                	;
 NODE_1332219    	166.5334    	0.000000    	                	;
 NODE_1322530    	165.8000    	0.000000    	                	;
 NODE_1334777    	167.4768    	0.004583    	                	;
 NODE_1331428    	162.3447    	0.007083    	                	;
 NODE_1332215    	156.1347    	0.000000    	                	;
 NODE_1335364    	160.1081    	0.006250    	                	;
 NODE_1338680    	166.3204    	0.000833    	                	;
 NODE_1340836    	152.3735    	0.003750    	                	;
 NODE_1340831    	153.1495    	0.005833    	                	;
 NODE_1316774    	155.2786    	0.001250    	                	;
 NODE_1331847    	151.3206    	0.001250    	                	;
 NODE_1332394    	136.2360    	0.003333    	                	;
 NODE_1332391    	157.8168    	0.002500    	                	;
 NODE_1319087    	168.5139    	0.002500    	                	;
 NODE_1316284    	167.7450    	0.006667    	                	;
 NODE_1337361    	166.4637    	0.003333    	                	;
 NODE_1333592    	143.0126    	0.001250    	                	;
 NODE_1331867    	178.7863    	0.004583    	                	;
 NODE_1338065    	160.2390    	0.006250    	                	;
 NODE_1333805    	159.0656    	0.000417    	                	;
 NODE_1333804    	158.9592    	0.004167    	                	;
 NODE_1331862    	144.2718    	0.002917    	                	;
 NODE_1334793    	161.1909    	0.007500    	                	;
 NODE_1333801    	153.6035    	0.001250    	                	;
 NODE_1327160    	153.1084    	0.002083    	                	;
 NODE_1322217    	166.2656    	0.004167    	                	;
 NODE_1333173    	168.0207    	0.006250    	                	;
 NODE_1331263    	148.8420    	0.000000    	                	;
 NODE_1331355    	141.3585    	0.000417    	                	;
 NODE_1336184    	164.8913    	0.002500    	                	;
 NODE_1319999    	154.0229    	0.000000    	                	;
 NODE_1320000    	162.8461    	0.000417    	                	;
 NODE_10825853   	167.9787    	0.009167    	                	;
 NODE_1315678    	153.5838    	0.000000    	                	;
 NODE_1333153    	155.9806    	0.000000    	                	;
 NODE_1318915    	167.7318    	0.000000    	                	;
 NODE_1333635    	148.6866    	0.011667    	                	;
 NODE_1332957    	139.9427    	0.000000    	                	;
 NODE_1331673    	159.6705    	0.000000    	                	;
 NODE_1317633    	168.2474    	0.004583    	                	;
 NODE_1321715    	167.2628    	0.003333    	                	;
 NODE_1331354    	142.4598    	0.000000    	                	;
 NODE_4482217    	166.5028    	0.003333    	                	;
 NODE_1318917    	174.3591    	0.026250    	                	;
 NODE_1332220    	162.4039    	0.006250    	                	;
 NODE_1334319    	164.9862    	0.004583    	                	;
 NODE_1334313    	152.6312    	0.005417    	                	;
 NODE_1334312    	152.9784    	0.000833    	                	;
 NODE_1316821    	153.5228    	0.006667    	                	;
 NODE_1335363    	164.5081    	0.000000    	                	;
 NODE_1332379    	167.1176    	0.004167    	                	;
 NODE_1332946    	153.6122    	0.003750    	                	;
 NODE_1319931    	144.2016    	0.000833    	                	;
 NODE_1332750    	154.3898    	0.000417    	                	;
 NODE_1331844    	152.6791    	0.003333    	                	;
 NODE_1333797    	152.7037    	0.000833    	                	;
 NODE_1333796    	152.5418    	0.004167    	                	;
 NODE_1317635    	172.6496    	0.006250    	                	;
 NODE_1334990    	171.3286    	0.007083    	                	;
 NODE_1333864    	164.5800    	0.004583    	                	;
 NODE_1333597    	150.2642    	0.002917    	                	;
 NODE_1332389    	167.5979    	0.007083    	                	;
 NODE_1332386    	153.7129    	0.007500    	                	;
 NODE_1334985    	167.1072    	0.002917    	                	;
 NODE_1334984    	167.7132    	0.002917    	                	;
 NODE_1332061    	158.0852    	0.000000    	                	;
 NODE_1333817    	165.5273    	0.000000    	                	;
 NODE_1333816    	165.3067    	0.004167    	                	;
 NODE_1333815    	164.7256    	0.008333    	                	;
 NODE_1316085    	136.5752    	0.007500    	                	;
 NODE_1331874    	168.6951    	0.001250    	                	;
 NODE_1316781    	178.8505    	0.004167    	                	;
 NODE_1333812    	165.1314    	0.007500    	                	;
 NODE_1333808    	160.8955    	0.007083    	                	;
 NODE_1316096    	159.6818    	0.002917    	                	;
 NODE_1331857    	149.3748    	0.000417    	                	;
 NODE_1334794    	161.9899    	0.002917    	                	;
 NODE_1317630    	161.5202    	0.007500    	                	;
 NODE_1317629    	159.6665    	0.005833    	                	;
 NODE_1334789    	157.7745    	0.003333    	                	;
 NODE_1317259    	158.0093    	0.005000    	                	;
 NODE_1333799    	153.3384    	0.025000    	                	;
 NODE_1337816    	166.4053    	0.000000    	                	;
 NODE_1333146    	151.2260    	0.012083    	                	;
 NODE_1331260    	150.0578    	0.001250    	                	;
 NODE_1331216    	146.4178    	0.003333    	                	;
 NODE_1331356    	151.5646    	0.005000    	                	;
 NODE_1329133    	161.0659    	0.005417    	                	;
 NODE_1334797    	144.4819    	0.000417    	                	;
 NODE_1332963    	152.4120    	0.000000    	                	;
 NODE_1318913    	165.1650    	0.000000    	                	;
 NODE_1333622    	171.8217    	0.002917    	                	;
 NODE_1334125    	155.2178    	0.005833    	                	;
 NODE_1315674    	166.6023    	0.000000    	                	;
 NODE_1315676    	167.7651    	0.000000    	                	;
 NODE_1319094    	150.9647    	0.000000    	                	;
 NODE_1318546    	163.3946    	0.000000    	                	;
 NODE_1333800    	153.5488    	0.001250    	                	;
 NODE_1332217    	166.1810    	0.000000    	                	;
 NODE_1334776    	166.7553    	0.006667    	                	;
 NODE_1334774    	165.7995    	0.005417    	                	;
 NODE_1334315    	167.5460    	0.005000    	                	;
 NODE_1334314    	152.4457    	0.005833    	                	;
 NODE_1316822    	153.5438    	0.002083    	                	;
 NODE_1322529    	158.1199    	0.000000    	                	;
 NODE_1334310    	153.6279    	0.005000    	                	;
 NODE_1334309    	153.0805    	0.003333    	                	;
 NODE_1334307    	152.0568    	0.000833    	                	;
 NODE_1334306    	151.6712    	0.003333    	                	;
 NODE_1340835    	152.7193    	0.001250    	                	;
 NODE_1331893    	151.4830    	0.002917    	                	;
 NODE_1332749    	153.1106    	0.000000    	                	;
 NODE_1331848    	152.1702    	0.000833    	                	;
 NODE_1331843    	153.2657    	0.001667    	                	;
 NODE_1331838    	155.2888    	0.001667    	                	;
 NODE_1337360    	151.0950    	0.002083    	                	;
 NODE_1334991    	171.8530    	0.008750    	                	;
 NODE_1333600    	150.8575    	0.000000    	                	;
 NODE_1333595    	149.1598    	0.007500    	                	;
 NODE_1332388    	168.1534    	0.000000    	                	;
 NODE_1332384    	159.5148    	0.000000    	                	;
 NODE_1333593    	143.9297    	0.012917    	                	;
 NODE_1316925    	161.5412    	0.002083    	                	;
 NODE_1337112    	159.0557    	0.000417    	                	;
 NODE_1316924    	161.2803    	0.005417    	                	;
 NODE_1333814    	167.3940    	0.008333    	                	;
 NODE_1331871    	163.8107    	0.005833    	                	;
 NODE_1320615    	178.1844    	0.002917    	                	;
 NODE_1333147    	146.8735    	0.030833    	                	;
 NODE_1316778    	143.9548    	0.001250    	                	;
 NODE_1338054    	143.9013    	0.000000    	                	;
 NODE_1331860    	147.3142    	0.000833    	                	;
 NODE_1316777    	146.4294    	0.006250    	                	;
 NODE_1317631    	163.1495    	0.004167    	                	;
 NODE_1334981    	162.7952    	0.000833    	                	;
 NODE_1318723    	145.3979    	0.004167    	                	;
 NODE_6259634    	152.7485    	0.002500    	                	;
 NODE_1333791    	150.6897    	0.007083    	                	;
 NODE_1331258    	150.1484    	0.008750    	                	;
 NODE_1331353    	141.5792    	0.000000    	                	;
 NODE_1336186    	150.1043    	0.000000    	                	;
 NODE_1336187    	160.2962    	0.006667    	                	;
 NODE_1336188    	160.8029    	0.005000    	                	;
 NODE_1334337    	155.6054    	0.000000    	                	;
 NODE_1318914    	176.5531    	0.002083    	                	;
 NODE_1318916    	163.5020    	0.003750    	                	;
 NODE_1332942    	165.7256    	0.000000    	                	;
 NODE_1338336    	165.5820    	0.000000    	                	;
 NODE_1317378    	135.3609    	0.001250    	                	;
 NODE_1335362    	156.1198    	0.000000    	                	;
 NODE_1334272    	167.7194    	0.006667    	                	;
 NODE_1333590    	137.6011    	0.005000    	                	;
 NODE_1331268    	151.3143    	0.000000    	                	;
 NODE_1318759    	143.7735    	0.001667    	                	;
 NODE_1334799    	155.8420    	0.005000    	                	;
 NODE_1315679    	165.8056    	0.000000    	                	;
 NODE_1334773    	164.8949    	0.006250    	                	;
 NODE_1334316    	167.1041    	0.000000    	                	;
 NODE_1334308    	152.2290    	0.000417    	                	;
 NODE_1317379    	163.5046    	0.001667    	                	;
 NODE_1334317    	166.0646    	0.002917    	                	;
 NODE_1319924    	155.2166    	0.000417    	                	;
 NODE_1340827    	161.0721    	0.013750    	                	;
 NODE_1332766    	173.3137    	0.009167    	                	;
 NODE_1319369    	160.3082    	0.000000    	                	;
 NODE_1338537    	155.4873    	0.007500    	                	;
 NODE_1332743    	164.5035    	0.005417    	                	;
 NODE_1331851    	155.6439    	0.001667    	                	;
 NODE_1331850    	155.5071    	0.010417    	                	;
 NODE_1316773    	152.7391    	0.002917    	                	;
 NODE_1334993    	173.4937    	0.003750    	                	;
 NODE_1334988    	168.5583    	0.000417    	                	;
 NODE_1334986    	167.4354    	0.001250    	                	;
 NODE_1332385    	158.1706    	0.003750    	                	;
 NODE_1333591    	138.6106    	0.007500    	                	;
 NODE_1332060    	159.8911    	0.002083    	                	;
 NODE_1332125    	162.0905    	0.000000    	                	;
 NODE_1331873    	172.2647    	0.009583    	                	;
 NODE_1331870    	175.9146    	0.006667    	                	;
 NODE_1316281    	163.1135    	0.004583    	                	;
 NODE_1333802    	165.6208    	0.007083    	                	;
 NODE_1316094    	165.4100    	0.012083    	                	;
 NODE_1338801    	145.8284    	0.000000    	                	;
 NODE_1334791    	159.8355    	0.000000    	                	;
 NODE_1334788    	158.6517    	0.010833    	                	;
 NODE_1334784    	153.7431    	0.008750    	                	;
 NODE_1334783    	159.4062    	0.001250    	                	;
 NODE_1333115    	145.4102    	0.000000    	                	;
 NODE_1327427    	153.1510    	0.009167    	                	;
 NODE_1327430    	153.4347    	0.002500    	                	;
 NODE_1331259    	150.0981    	0.034167    	                	;
 NODE_4490343    	150.6562    	0.000000    	                	;
 NODE_1331359    	149.7951    	0.001667    	                	;
 NODE_1336183    	155.6120    	0.003333    	                	;
 NODE_1322198    	158.4304    	0.001250    	                	;
 NODE_1337662    	167.1154    	0.000833    	                	;
 NODE_1338406    	167.0807    	0.002500    	                	;
 NODE_10825910   	153.9930    	0.007917    	                	;
 NODE_3986911    	151.0688    	0.000000    	                	;
 NODE_1333621    	168.8211    	0.001667    	                	;
 NODE_1333625    	152.5832    	0.000000    	                	;
 NODE_1333626    	151.1262    	0.007917    	                	;
 NODE_1333154    	165.5153    	0.000000    	                	;
 NODE_1333629    	154.7475    	0.006667    	                	;
 NODE_1333632    	178.9165    	0.000000    	                	;
 NODE_1315975    	155.6098    	0.019583    	                	;
 NODE_1338087    	155.5764    	0.001250    	                	;
 NODE_1332952    	161.9268    	0.000000    	                	;
 NODE_1333175    	166.1445    	0.000000    	                	;
 NODE_1333803    	166.5534    	0.000417    	                	;
 NODE_6289912    	153.8383    	0.000000    	                	;
 NODE_1332960    	175.2188    	0.000000    	                	;
 NODE_1334334    	151.1440    	0.000000    	                	;
 NODE_1334311    	154.0460    	0.000417    	                	;
 NODE_1320623    	153.7613    	0.000000    	                	;
 NODE_1338711    	158.2027    	0.000000    	                	;
 NODE_1332382    	166.2997    	0.007917    	                	;
 NODE_1318726    	164.1413    	0.000000    	                	;
 NODE_1319378    	165.8039    	0.002083    	                	;
 NODE_1332747    	155.0769    	0.012500    	                	;
 NODE_1331846    	150.7189    	0.007917    	                	;
 NODE_1331842    	154.7555    	0.005833    	                	;
 NODE_1338543    	153.7596    	0.000000    	                	;
 NODE_1333795    	151.0121    	0.000000    	                	;
 NODE_1334989    	170.2693    	0.004583    	                	;
 NODE_1316087    	147.3410    	0.002500    	                	;
 NODE_1332062    	159.9286    	0.006250    	                	;
 NODE_1333819    	165.9936    	0.000000    	                	;
 NODE_1333588    	136.2349    	0.000833    	                	;
 NODE_1316282    	164.1507    	0.009583    	                	;
 NODE_1331869    	178.0683    	0.007917    	                	;
 NODE_1333809    	162.1209    	0.005000    	                	;
 NODE_1322777    	177.9221    	0.000417    	                	;
 NODE_1333807    	160.1023    	0.007083    	                	;
 NODE_1333806    	159.0555    	0.001667    	                	;
 NODE_1334982    	164.0654    	0.000000    	                	;
 NODE_1331856    	145.0133    	0.006250    	                	;
 NODE_1327429    	153.6393    	0.007500    	                	;
 NODE_1318535    	167.9678    	0.012917    	                	;
 NODE_1327113    	156.4440    	0.003750    	                	;
 NODE_6259625    	151.9645    	0.010417    	                	;
 NODE_1331261    	149.5596    	0.008750    	                	;
 NODE_1331352    	142.9090    	0.004583    	                	;
 NODE_13175      	167.7198    	0.000000    	                	;
 NODE_13175_1    	167.8812    	0.000000    	                	;
 NODE_12340      	141.5665    	0.000000    	                	;
 NODE_12340_1    	141.9025    	0.000000    	                	;
 NODE_1344689    	167.2428    	0.000000    	                	;
 NODE_11791      	167.2520    	0.000000    	                	;
 NODE_11791_1    	167.2353    	0.000000    	                	;
 NODE_13182      	166.5822    	0.000000    	                	;
 NODE_13182_1    	166.6682    	0.000000    	                	;
 NODE_1343263    	155.9630    	0.000000    	                	;
 NODE_11793      	161.1265    	0.000000    	                	;
 NODE_11793_1    	161.0965    	0.000000    	                	;
 NODE_1344583    	180.8604    	0.000000    	                	;
 NODE_13200      	166.8567    	0.000000    	                	;
 NODE_13200_1    	166.8474    	0.000000    	                	;
 NODE_12179      	155.5959    	0.000000    	                	;
 NODE_12179_1    	155.6033    	0.000000    	                	;
 NODE_11771      	166.8323    	0.000000    	                	;
 NODE_11771_1    	166.8229    	0.000000    	                	;
 NODE_1343372    	179.7580    	0.000000    	                	;
 NODE_13685      	141.1261    	0.000000    	                	;
 NODE_13685_1    	141.3271    	0.000000    	                	;
 NODE_11794      	161.1063    	0.000000    	                	;
 NODE_11794_1    	161.1163    	0.000000    	                	;
 NODE_1344557    	155.0873    	0.000000    	                	;
 NODE_1343262    	166.6006    	0.000000    	                	;
 NODE_11552      	179.4711    	0.000000    	                	;
 NODE_11552_1    	179.5131    	0.000000    	                	;
 NODE_1344536    	167.3014    	0.000000    	                	;
 NODE_1344724    	165.4117    	0.000000    	                	;
 NODE_5902       	155.0369    	0.000000    	                	;
 NODE_5902_1     	155.1083    	0.000000    	                	;
 NODE_1344692    	161.1118    	0.000000    	                	;
 NODE_1343390    	176.0847    	0.000000    	                	;
 NODE_312        	151.3465    	0.000000    	                	;
 NODE_3985920    	180.8376    	0.000000    	                	;
 NODE_11773      	165.3992    	0.000000    	                	;
 NODE_11773_1    	165.4525    	0.000000    	                	;
 NODE_1343374    	179.4544    	0.000000    	                	;
 NODE_12187      	157.7366    	0.000000    	                	;
 NODE_12187_1    	157.5186    	0.000000    	                	;
 NODE_11765      	161.9533    	0.000000    	                	;
 NODE_11765_1    	161.9743    	0.000000    	                	;
 NODE_12186      	155.7553    	0.000000    	                	;
 NODE_12186_1    	155.8200    	0.000000    	                	;
 NODE_12339      	141.5587    	0.000000    	                	;
 NODE_12339_1    	141.8947    	0.000000    	                	;
 NODE_11759      	154.8380    	0.000000    	                	;
 NODE_11759_1    	155.1050    	0.000000    	                	;
 NODE_1344588    	175.9574    	0.000000    	                	;
 NODE_1344558    	143.1999    	0.000000    	                	;
 NODE_4577577    	167.1900    	0.000000    	                	;
 NODE_1343279    	164.4462    	0.000000    	                	;
 NODE_1343452    	176.0568    	0.000000    	                	;
 NODE_11760      	154.8094    	0.000000    	                	;
 NODE_11760_1    	155.0764    	0.000000    	                	;
 NODE_11556      	176.1223    	0.000000    	                	;
 NODE_11556_1    	176.0977    	0.000000    	                	;
 NODE_13201      	166.8402    	0.000000    	                	;
 NODE_13201_1    	166.8309    	0.000000    	                	;
 NODE_1344693    	166.8480    	0.000000    	                	;
 NODE_1344556    	155.5921    	0.000000    	                	;
 NODE_5903       	155.0254    	0.000000    	                	;
 NODE_5903_1     	155.0968    	0.000000    	                	;
 NODE_1343281    	155.0369    	0.000000    	                	;
 NODE_11570      	176.0945    	0.000000    	                	;
 NODE_11570_1    	176.3065    	0.000000    	                	;
 NODE_11762      	175.9647    	0.000000    	                	;
 NODE_11762_1    	175.9400    	0.000000    	                	;
 NODE_11578      	152.4480    	0.000000    	                	;
 NODE_11578_1    	152.7460    	0.000000    	                	;
 NODE_11573      	164.7143    	0.000000    	                	;
 NODE_11573_1    	164.7917    	0.000000    	                	;
 NODE_12176      	134.9185    	0.000000    	                	;
 NODE_12176_1    	135.1455    	0.000000    	                	;
 NODE_11774      	165.4169    	0.000000    	                	;
 NODE_11774_1    	165.4702    	0.000000    	                	;
 NODE_313        	139.9256    	0.000000    	                	;
 NODE_13683      	141.1117    	0.000000    	                	;
 NODE_13683_1    	141.3127    	0.000000    	                	;
 NODE_314        	155.8330    	0.000000    	                	;
 NODE_13199      	167.2490    	0.000000    	                	;