[TITLE]
Converted from Epanet to Staci, case name: kohegy.spr


[JUNCTIONS]
;ID              	Elev        	Demand      	Pattern         
 NODE_1322884    	188.4752    	0.007500    	                	;
 NODE_1342450    	179.5940    	0.000000    	                	;
 NODE_1338584    	176.3134    	0.000000    	                	;
 NODE_1340882    	175.4910    	0.000000    	                	;
 NODE_1339196    	179.6245    	0.000000    	                	;
 NODE_1340876    	172.9422    	0.000000    	                	;
 NODE_1332265    	176.8990    	0.005000    	                	;
 NODE_1332289    	175.2724    	0.008817    	                	;
 NODE_1332290    	175.1208    	0.007917    	                	;
 NODE_1324532    	187.4248    	0.014942    	                	;
 NODE_1332268    	178.5292    	0.015000    	                	;
 NODE_1332271    	178.3266    	0.006250    	                	;
 NODE_1332273    	175.0961    	0.006667    	                	;
 NODE_1316579    	175.2077    	0.000000    	                	;
 NODE_1336984    	175.0577    	0.000000    	                	;
 NODE_1333199    	176.0020    	0.000000    	                	;
 NODE_1322047    	176.8461    	0.005000    	                	;
 NODE_1339924    	175.8840    	0.002083    	                	;
 NODE_1322049    	175.9020    	0.005000    	                	;
 NODE_1322052    	180.9739    	0.000000    	                	;
 NODE_1339929    	173.5199    	0.003750    	                	;
 NODE_1342086    	181.9582    	0.003750    	                	;
 NODE_1342088    	179.2791    	0.004583    	                	;
 NODE_1338951    	178.8940    	0.003333    	                	;
 NODE_1339938    	174.1352    	0.001667    	                	;
 NODE_1342582    	176.1291    	0.001250    	                	;
 NODE_1339948    	174.8653    	0.016667    	                	;
 NODE_1340699    	172.4261    	0.002083    	                	;
 NODE_1342594    	174.4089    	0.003750    	                	;
 NODE_1331544    	174.6810    	0.003750    	                	;
 NODE_1340487    	175.0036    	0.001250    	                	;
 NODE_1341168    	172.2881    	0.005000    	                	;
 NODE_1342598    	174.1257    	0.003750    	                	;
 NODE_1340719    	174.6362    	0.011979    	                	;
 NODE_1340720    	174.4251    	0.002083    	                	;
 NODE_1341171    	171.5173    	0.003333    	                	;
 NODE_1341172    	171.4270    	0.000000    	                	;
 NODE_1341174    	171.0026    	0.002083    	                	;
 NODE_1342608    	174.1119    	0.002917    	                	;
 NODE_1340676    	173.3582    	0.004667    	                	;
 NODE_1322164    	170.7068    	0.000000    	                	;
 NODE_1335586    	174.0343    	0.014167    	                	;
 NODE_1321270    	174.8112    	0.003750    	                	;
 NODE_1335546    	175.0534    	0.005417    	                	;
 NODE_1335644    	172.2360    	0.003333    	                	;
 NODE_1342619    	174.6168    	0.006250    	                	;
 NODE_1338953    	174.7921    	0.004583    	                	;
 NODE_1340691    	174.7596    	0.001250    	                	;
 NODE_1321273    	174.6899    	0.004167    	                	;
 NODE_1335641    	174.6402    	0.006250    	                	;
 NODE_1340694    	172.4631    	0.007083    	                	;
 NODE_1339177    	177.3478    	0.005000    	                	;
 NODE_1322351    	173.6336    	0.024625    	                	;
 NODE_1339187    	176.1124    	0.009321    	                	;
 NODE_1337115    	175.8989    	0.004167    	                	;
 NODE_1339192    	177.5724    	0.007917    	                	;
 NODE_1339367    	176.5290    	0.002917    	                	;
 NODE_1331531    	177.0358    	0.004583    	                	;
 NODE_1341537    	176.4324    	0.000833    	                	;
 NODE_1339373    	175.3920    	0.000833    	                	;
 NODE_1339378    	175.9877    	0.004167    	                	;
 NODE_1335625    	175.6175    	0.000417    	                	;
 NODE_1322038    	176.2645    	0.001250    	                	;
 NODE_1339386    	175.2919    	0.005417    	                	;
 NODE_1339908    	177.4181    	0.007179    	                	;
 NODE_1320175    	180.3854    	0.007083    	                	;
 NODE_1342061    	179.2838    	0.005000    	                	;
 NODE_1339915    	173.8534    	0.004583    	                	;
 NODE_1341377    	172.0180    	0.007083    	                	;
 NODE_1321727    	169.2925    	0.000000    	                	;
 NODE_1341382    	172.7281    	0.002917    	                	;
 NODE_1335574    	175.7876    	0.010000    	                	;
 NODE_1341390    	183.9202    	0.002083    	                	;
 NODE_1339210    	173.5362    	0.007500    	                	;
 NODE_1339213    	176.1431    	0.003333    	                	;
 NODE_1341888    	185.8687    	0.005258    	                	;
 NODE_1341893    	182.4301    	0.003750    	                	;
 NODE_1342443    	183.7568    	0.000000    	                	;
 NODE_1342448    	175.6410    	0.003333    	                	;
 NODE_1341897    	176.9485    	0.004583    	                	;
 NODE_1341904    	175.9208    	0.007917    	                	;
 NODE_1322893    	175.9117    	0.006667    	                	;
 NODE_1337119    	175.8119    	0.002917    	                	;
 NODE_1341912    	175.1424    	0.003750    	                	;
 NODE_1319730    	177.0710    	0.005417    	                	;
 NODE_1319179    	172.4243    	0.004167    	                	;
 NODE_1342431    	173.4671    	0.001667    	                	;
 NODE_1335589    	172.7619    	0.006250    	                	;
 NODE_1342634    	175.1307    	0.000833    	                	;
 NODE_1342637    	172.8368    	0.007500    	                	;
 NODE_1341404    	175.8331    	0.000625    	                	;
 NODE_1341406    	170.9204    	0.000000    	                	;
 NODE_1338585    	176.2480    	0.000000    	                	;
 NODE_1318565    	173.6485    	0.002500    	                	;
 NODE_1336609    	178.7135    	0.000000    	                	;
 NODE_1337669    	172.8843    	0.000000    	                	;
 NODE_1340879    	183.4486    	0.000000    	                	;
 NODE_1340682    	174.5759    	0.002500    	                	;
 NODE_1340872    	169.5639    	0.000000    	                	;
 NODE_1340877    	172.7689    	0.000000    	                	;
 NODE_8175787    	175.9656    	0.006250    	                	;
 NODE_1338608    	175.0261    	0.003750    	                	;
 NODE_1332277    	175.7053    	0.002083    	                	;
 NODE_1321448    	175.8329    	0.002500    	                	;
 NODE_1324230    	174.0644    	0.000417    	                	;
 NODE_1342066    	178.3007    	0.001250    	                	;
 NODE_1335626    	177.0016    	0.000833    	                	;
 NODE_1339920    	177.7533    	0.005833    	                	;
 NODE_1342074    	175.8338    	0.002917    	                	;
 NODE_1342075    	175.7858    	0.000417    	                	;
 NODE_1342078    	183.8563    	0.000000    	                	;
 NODE_1342083    	180.5832    	0.002917    	                	;
 NODE_1342085    	182.4338    	0.001667    	                	;
 NODE_1342579    	176.8461    	0.005000    	                	;
 NODE_1342581    	176.2478    	0.002575    	                	;
 NODE_1342586    	175.7844    	0.001667    	                	;
 NODE_1337746    	175.3833    	0.006250    	                	;
 NODE_1339950    	173.6215    	0.002083    	                	;
 NODE_1340698    	172.2488    	0.000000    	                	;
 NODE_1340700    	172.4168    	0.002917    	                	;
 NODE_1339951    	173.9962    	0.002083    	                	;
 NODE_1340486    	174.8966    	0.002500    	                	;
 NODE_1341167    	172.3332    	0.000833    	                	;
 NODE_1342595    	174.3624    	0.009583    	                	;
 NODE_1322563    	174.0560    	0.003750    	                	;
 NODE_1342599    	173.8630    	0.000000    	                	;
 NODE_1342601    	175.1500    	0.009167    	                	;
 NODE_1340489    	175.1672    	0.003750    	                	;
 NODE_1335640    	174.6109    	0.001867    	                	;
 NODE_1342606    	174.0219    	0.002867    	                	;
 NODE_1322567    	174.9951    	0.001667    	                	;
 NODE_1342610    	173.2076    	0.005833    	                	;
 NODE_1340722    	174.0700    	0.001250    	                	;
 NODE_1341177    	172.3344    	0.002083    	                	;
 NODE_1341178    	172.3292    	0.004583    	                	;
 NODE_1342618    	173.3508    	0.005833    	                	;
 NODE_1340686    	174.8024    	0.004075    	                	;
 NODE_1322166    	172.3225    	0.000417    	                	;
 NODE_1342620    	174.8590    	0.002083    	                	;
 NODE_1341185    	172.2376    	0.002500    	                	;
 NODE_1341186    	172.1945    	0.005417    	                	;
 NODE_1341189    	172.5166    	0.002917    	                	;
 NODE_1339182    	176.1776    	0.004583    	                	;
 NODE_1322352    	172.4852    	0.000625    	                	;
 NODE_1341195    	172.4005    	0.000833    	                	;
 NODE_1319422    	176.9286    	0.002500    	                	;
 NODE_1331533    	176.7302    	0.000000    	                	;
 NODE_1337736    	177.2725    	0.002083    	                	;
 NODE_1336428    	176.0420    	0.001250    	                	;
 NODE_1319425    	176.0135    	0.003750    	                	;
 NODE_1339379    	176.0139    	0.003750    	                	;
 NODE_1339380    	175.9993    	0.002500    	                	;
 NODE_1341862    	176.1339    	0.004583    	                	;
 NODE_1335577    	176.6276    	0.003750    	                	;
 NODE_1341866    	177.3456    	0.003333    	                	;
 NODE_1341868    	177.6657    	0.001250    	                	;
 NODE_1341869    	178.1748    	0.002500    	                	;
 NODE_1319429    	174.3988    	0.002500    	                	;
 NODE_1339388    	176.0924    	0.005417    	                	;
 NODE_1339911    	177.5863    	0.005833    	                	;
 NODE_1319045    	179.3583    	0.000000    	                	;
 NODE_1342062    	179.4111    	0.001667    	                	;
 NODE_1339918    	173.9106    	0.008750    	                	;
 NODE_1340883    	180.7743    	0.000000    	                	;
 NODE_1341359    	187.2231    	0.002083    	                	;
 NODE_1341361    	178.9201    	0.009167    	                	;
 NODE_1320956    	170.5399    	0.004167    	                	;
 NODE_1341366    	183.8099    	0.004167    	                	;
 NODE_1320957    	183.5001    	0.009829    	                	;
 NODE_1320960    	172.1731    	0.003750    	                	;
 NODE_1341378    	170.5670    	0.005000    	                	;
 NODE_1331525    	169.5479    	0.007467    	                	;
 NODE_1341381    	171.9570    	0.003333    	                	;
 NODE_1331520    	173.3991    	0.003750    	                	;
 NODE_1341883    	187.8514    	0.005833    	                	;
 NODE_1341892    	182.3915    	0.000833    	                	;
 NODE_1342444    	175.4917    	0.001667    	                	;
 NODE_1342446    	184.7221    	0.000000    	                	;
 NODE_1319727    	176.8104    	0.004583    	                	;
 NODE_1322889    	182.2338    	0.002917    	                	;
 NODE_1341900    	175.6640    	0.008333    	                	;
 NODE_1341908    	175.8848    	0.000833    	                	;
 NODE_1331510    	175.6973    	0.001367    	                	;
 NODE_1321954    	174.9205    	0.026696    	                	;
 NODE_1342455    	176.8175    	0.006667    	                	;
 NODE_1342439    	174.8564    	0.000833    	                	;
 NODE_1341395    	175.6620    	0.000842    	                	;
 NODE_1341401    	175.3811    	0.004167    	                	;
 NODE_1322356    	175.7095    	0.004167    	                	;
 NODE_1319564    	173.4273    	0.009458    	                	;
 NODE_1318567    	173.6319    	0.000000    	                	;
 NODE_1338470    	174.2770    	0.002500    	                	;
 NODE_1338474    	174.6287    	0.007917    	                	;
 NODE_1336767    	173.4419    	0.008333    	                	;
 NODE_1319729    	172.3261    	0.000000    	                	;
 NODE_1342451    	174.9914    	0.000000    	                	;
 NODE_1321065    	178.3550    	0.008121    	                	;
 NODE_1320389    	174.4444    	0.000000    	                	;
 NODE_1339207    	169.0889    	0.000000    	                	;
 NODE_1320388    	172.4487    	0.000000    	                	;
 NODE_1333201    	176.5113    	0.000000    	                	;
 NODE_1332283    	175.3603    	0.000000    	                	;
 NODE_1331650    	174.4096    	0.003333    	                	;
 NODE_1316998    	175.9932    	0.000833    	                	;
 NODE_1331166    	174.6287    	0.002917    	                	;
 NODE_1332291    	175.0235    	0.008183    	                	;
 NODE_1322759    	174.7867    	0.001250    	                	;
 NODE_1332278    	176.5764    	0.007500    	                	;
 NODE_1332280    	175.9464    	0.015325    	                	;
 NODE_1342065    	179.0708    	0.001667    	                	;
 NODE_1342070    	176.3757    	0.004167    	                	;
 NODE_1339921    	177.2176    	0.006667    	                	;
 NODE_1322050    	184.7789    	0.009583    	                	;
 NODE_1339927    	174.0509    	0.002500    	                	;
 NODE_1331512    	172.7475    	0.000362    	                	;
 NODE_1322054    	180.6873    	0.002500    	                	;
 NODE_1342587    	175.7973    	0.005833    	                	;
 NODE_1319063    	172.1975    	0.000000    	                	;
 NODE_1322558    	175.8340    	0.002083    	                	;
 NODE_1338952    	174.6668    	0.006858    	                	;
 NODE_1340481    	174.8343    	0.002917    	                	;
 NODE_1341165    	172.3770    	0.001250    	                	;
 NODE_1342596    	174.2746    	0.002917    	                	;
 NODE_1340716    	174.7294    	0.001667    	                	;
 NODE_1340718    	174.6003    	0.002583    	                	;
 NODE_1341170    	171.8995    	0.002500    	                	;
 NODE_1322163    	171.6794    	0.004167    	                	;
 NODE_1341173    	171.2348    	0.023850    	                	;
 NODE_1342604    	174.4638    	0.000833    	                	;
 NODE_1322568    	172.9504    	0.008837    	                	;
 NODE_1340675    	173.3898    	0.000833    	                	;
 NODE_1341176    	170.7469    	0.000833    	                	;
 NODE_1321269    	174.6480    	0.005000    	                	;
 NODE_1340688    	175.1273    	0.005000    	                	;
 NODE_1342621    	174.9013    	0.004583    	                	;
 NODE_1321274    	172.3193    	0.008333    	                	;
 NODE_1339179    	177.5769    	0.004583    	                	;
 NODE_1319416    	176.7468    	0.003333    	                	;
 NODE_1339190    	177.7531    	0.001667    	                	;
 NODE_1339368    	176.3893    	0.002083    	                	;
 NODE_1339375    	175.9546    	0.002083    	                	;
 NODE_1336634    	176.1191    	0.004583    	                	;
 NODE_1341538    	175.9984    	0.005000    	                	;
 NODE_1341540    	175.7896    	0.003750    	                	;
 NODE_1322036    	175.6231    	0.007917    	                	;
 NODE_1339383    	174.1137    	0.005000    	                	;
 NODE_1319428    	173.7934    	0.004583    	                	;
 NODE_1342053    	178.0971    	0.000000    	                	;
 NODE_1339387    	175.4871    	0.003750    	                	;
 NODE_1339912    	177.9084    	0.006250    	                	;
 NODE_1330939    	174.4625    	0.005000    	                	;
 NODE_1331203    	174.1264    	0.005000    	                	;
 NODE_1339916    	173.5077    	0.005417    	                	;
 NODE_1339917    	173.7242    	0.002083    	                	;
 NODE_1339919    	180.7739    	0.006250    	                	;
 NODE_1319039    	173.1798    	0.001092    	                	;
 NODE_1341360    	174.4927    	0.016400    	                	;
 NODE_1341367    	183.9282    	0.008333    	                	;
 NODE_1341383    	172.6952    	0.004167    	                	;
 NODE_1319042    	173.9438    	0.006612    	                	;
 NODE_1338201    	173.4545    	0.003333    	                	;
 NODE_1322885    	186.5736    	0.006667    	                	;
 NODE_1341890    	183.9805    	0.013100    	                	;
 NODE_1319726    	172.8880    	0.002383    	                	;
 NODE_1322890    	175.8215    	0.001667    	                	;
 NODE_1341911    	175.5138    	0.004583    	                	;
 NODE_1342454    	177.7561    	0.007500    	                	;
 NODE_1342459    	178.0087    	0.002500    	                	;
 NODE_1342460    	176.9439    	0.005833    	                	;
 NODE_1342432    	174.2443    	0.003750    	                	;
 NODE_1319722    	174.4887    	0.000625    	                	;
 NODE_1342434    	174.6356    	0.000000    	                	;
 NODE_1342635    	175.6070    	0.001667    	                	;
 NODE_1319734    	175.9508    	0.007083    	                	;
 NODE_1322354    	175.7200    	0.000625    	                	;
 NODE_1342440    	172.4235    	0.000000    	                	;
 NODE_1341400    	175.8328    	0.001250    	                	;
 NODE_1341874    	188.1485    	0.003029    	                	;
 NODE_1338586    	176.0103    	0.003750    	                	;
 NODE_1336974    	178.1097    	0.003750    	                	;
 NODE_1330071    	174.6159    	0.000000    	                	;
 NODE_1318118    	176.1712    	0.002500    	                	;
 NODE_1336606    	180.4407    	0.000000    	                	;
 NODE_1342452    	178.2613    	0.000000    	                	;
 NODE_1320176    	179.2417    	0.004583    	                	;
 NODE_1327579    	177.3649    	0.000000    	                	;
 NODE_1340881    	176.9031    	0.000000    	                	;
 NODE_1320390    	172.8882    	0.025454    	                	;
 NODE_1318119    	176.1704    	0.000000    	                	;
 NODE_1330813    	174.3793    	0.000000    	                	;
 NODE_1321268    	174.6366    	0.004583    	                	;
 NODE_1339202    	175.7306    	0.000000    	                	;
 NODE_1339203    	174.1013    	0.000000    	                	;
 NODE_1339204    	171.2567    	0.000000    	                	;
 NODE_1339198    	174.5078    	0.000000    	                	;
 NODE_1337128    	175.8319    	0.000000    	                	;
 NODE_1332294    	174.1979    	0.003750    	                	;
 NODE_1332269    	178.5888    	0.007083    	                	;
 NODE_1315359    	183.0058    	0.001075    	                	;
 NODE_1333705    	174.8334    	0.001583    	                	;
 NODE_1319264    	174.8319    	0.000000    	                	;
 NODE_1322046    	177.9348    	0.000208    	                	;
 NODE_1342071    	176.3000    	0.008750    	                	;
 NODE_1339923    	176.2411    	0.002500    	                	;
 NODE_1339930    	173.2971    	0.000000    	                	;
 NODE_1339933    	173.5235    	0.004583    	                	;
 NODE_1320499    	173.5259    	0.003750    	                	;
 NODE_1339934    	173.3149    	0.009583    	                	;
 NODE_1320166    	184.9292    	0.005192    	                	;
 NODE_1342087    	180.6173    	0.000417    	                	;
 NODE_1335585    	175.2871    	0.000000    	                	;
 NODE_1339941    	175.5373    	0.013213    	                	;
 NODE_1339943    	177.0475    	0.001250    	                	;
 NODE_1342578    	177.0537    	0.000833    	                	;
 NODE_1339949    	172.9548    	0.002917    	                	;
 NODE_1320505    	173.2345    	0.002083    	                	;
 NODE_1342591    	175.2084    	0.001667    	                	;
 NODE_1340480    	174.3155    	0.000833    	                	;
 NODE_1340482    	174.7523    	0.004167    	                	;
 NODE_1340484    	174.6555    	0.000417    	                	;
 NODE_1341169    	172.0031    	0.001250    	                	;
 NODE_1342600    	175.0169    	0.002917    	                	;
 NODE_1342603    	175.2131    	0.004167    	                	;
 NODE_1321067    	174.7973    	0.004483    	                	;
 NODE_1319574    	171.8236    	0.000833    	                	;
 NODE_1340679    	173.8144    	0.004583    	                	;
 NODE_1342613    	173.3226    	0.006667    	                	;
 NODE_1322569    	173.3347    	0.000000    	                	;
 NODE_1341180    	172.3223    	0.004167    	                	;
 NODE_1341181    	172.2930    	0.000417    	                	;
 NODE_1342623    	175.8955    	0.001667    	                	;
 NODE_1319413    	176.2766    	0.002500    	                	;
 NODE_1340689    	175.0251    	0.000625    	                	;
 NODE_1341187    	172.1813    	0.003750    	                	;
 NODE_1319414    	177.1232    	0.001667    	                	;
 NODE_1341192    	174.5427    	0.004583    	                	;
 NODE_1339183    	175.2066    	0.004583    	                	;
 NODE_1339185    	175.6307    	0.003750    	                	;
 NODE_1339188    	177.1566    	0.007083    	                	;
 NODE_1339189    	177.4788    	0.000000    	                	;
 NODE_1319420    	177.8650    	0.000625    	                	;
 NODE_1341193    	172.7007    	0.000833    	                	;
 NODE_1341196    	175.6201    	0.002083    	                	;
 NODE_1339193    	177.2849    	0.005833    	                	;
 NODE_1339371    	174.1888    	0.006667    	                	;
 NODE_1330975    	179.2489    	0.001667    	                	;
 NODE_1341536    	176.6934    	0.001667    	                	;
 NODE_1341860    	175.7296    	0.000417    	                	;
 NODE_1341861    	175.8363    	0.005417    	                	;
 NODE_1335582    	175.3511    	0.003750    	                	;
 NODE_1319427    	175.2467    	0.006250    	                	;
 NODE_1341865    	176.9438    	0.004583    	                	;
 NODE_1342059    	180.7679    	0.005000    	                	;
 NODE_1320954    	175.4501    	0.008283    	                	;
 NODE_1341368    	178.6021    	0.000000    	                	;
 NODE_1341370    	174.6778    	0.005417    	                	;
 NODE_1341374    	175.6371    	0.003750    	                	;
 NODE_1335619    	174.4615    	0.001250    	                	;
 NODE_1320961    	171.4316    	0.000000    	                	;
 NODE_1320962    	169.5581    	0.000000    	                	;
 NODE_1320963    	172.7047    	0.006088    	                	;
 NODE_1341385    	170.1447    	0.003750    	                	;
 NODE_1331524    	174.1034    	0.004583    	                	;
 NODE_1320965    	174.7706    	0.003333    	                	;
 NODE_1342445    	187.6569    	0.011046    	                	;
 NODE_1341876    	187.7954    	0.001667    	                	;
 NODE_1322883    	187.7277    	0.004167    	                	;
 NODE_1335553    	186.0316    	0.004583    	                	;
 NODE_1341891    	184.1197    	0.003708    	                	;
 NODE_1341895    	181.8586    	0.003750    	                	;
 NODE_1336080    	181.8317    	0.002500    	                	;
 NODE_1341899    	175.6167    	0.003750    	                	;
 NODE_1341903    	175.8952    	0.001667    	                	;
 NODE_1341910    	175.7876    	0.000833    	                	;
 NODE_1341913    	175.9174    	0.001250    	                	;
 NODE_1342453    	178.1464    	0.003333    	                	;
 NODE_1319178    	174.6047    	0.004167    	                	;
 NODE_1342458    	175.1268    	0.001667    	                	;
 NODE_1319721    	173.3494    	0.007500    	                	;
 NODE_1336084    	174.7068    	0.000625    	                	;
 NODE_1342437    	173.6356    	0.006667    	                	;
 NODE_1342636    	176.7712    	0.003333    	                	;
 NODE_1319735    	173.6533    	0.006250    	                	;
 NODE_1341398    	175.9201    	0.002500    	                	;
 NODE_1341873    	188.1505    	0.000000    	                	;
 NODE_1328143    	175.7238    	0.004167    	                	;
 NODE_1319539    	175.7045    	0.007917    	                	;
 NODE_1320160    	174.7113    	0.000000    	                	;
 NODE_1335677    	173.9884    	0.004167    	                	;
 NODE_1332276    	175.5095    	0.007917    	                	;
 NODE_1316581    	175.8556    	0.003333    	                	;
 NODE_1315717    	175.5727    	0.005000    	                	;
 NODE_1342068    	177.2280    	0.007500    	                	;
 NODE_1342076    	185.8094    	0.000629    	                	;
 NODE_1342080    	182.6141    	0.002083    	                	;
 NODE_1342081    	182.2166    	0.002083    	                	;
 NODE_1320497    	173.8905    	0.005417    	                	;
 NODE_1339928    	173.5564    	0.002083    	                	;
 NODE_1320498    	173.0758    	0.002500    	                	;
 NODE_1331513    	172.9676    	0.008750    	                	;
 NODE_1336927    	173.8432    	0.004583    	                	;
 NODE_1320501    	174.5019    	0.000417    	                	;
 NODE_1321740    	174.6842    	0.004583    	                	;
 NODE_1339942    	175.9757    	0.005417    	                	;
 NODE_1340697    	175.5920    	0.001667    	                	;
 NODE_1342583    	176.0420    	0.003750    	                	;
 NODE_1342584    	175.9475    	0.003333    	                	;
 NODE_1337750    	172.3928    	0.002500    	                	;
 NODE_1342588    	175.8161    	0.007500    	                	;
 NODE_1342590    	175.5027    	0.002917    	                	;
 NODE_1340479    	174.1264    	0.006667    	                	;
 NODE_1321066    	175.0687    	0.000417    	                	;
 NODE_1322161    	172.3705    	0.001646    	                	;
 NODE_1322564    	175.1031    	0.002500    	                	;
 NODE_1322565    	174.4326    	0.005417    	                	;
 NODE_1340678    	173.3698    	0.000000    	                	;
 NODE_1342612    	173.3153    	0.000417    	                	;
 NODE_1331540    	173.3291    	0.001667    	                	;
 NODE_1342616    	173.3257    	0.000000    	                	;
 NODE_1340680    	174.1968    	0.002917    	                	;
 NODE_1322167    	172.2058    	0.000833    	                	;
 NODE_1339172    	176.0615    	0.012267    	                	;
 NODE_1340693    	169.2027    	0.000000    	                	;
 NODE_1341188    	172.3240    	0.000833    	                	;
 NODE_1339175    	176.8485    	0.000417    	                	;
 NODE_1319415    	177.5328    	0.000833    	                	;
 NODE_1320955    	172.9511    	0.014583    	                	;
 NODE_1339184    	174.6497    	0.001458    	                	;
 NODE_1319418    	175.2091    	0.005000    	                	;
 NODE_1341194    	172.4593    	0.011250    	                	;
 NODE_1322353    	172.3648    	0.000825    	                	;
 NODE_1335635    	177.5329    	0.006250    	                	;
 NODE_1340696    	177.3758    	0.000833    	                	;
 NODE_1341534    	178.3597    	0.004583    	                	;
 NODE_1341535    	177.6282    	0.011250    	                	;
 NODE_1339376    	176.0590    	0.009583    	                	;
 NODE_1339381    	175.7728    	0.002917    	                	;
 NODE_1339382    	175.5911    	0.012917    	                	;
 NODE_1319054    	173.5141    	0.002917    	                	;
 NODE_1337743    	174.0633    	0.002917    	                	;
 NODE_1322039    	176.8248    	0.001250    	                	;
 NODE_1342055    	179.2585    	0.002917    	                	;
 NODE_1342056    	180.4307    	0.005000    	                	;
 NODE_1330937    	176.4952    	0.002917    	                	;
 NODE_1322043    	180.6496    	0.005000    	                	;
 NODE_1322045    	177.5151    	0.002083    	                	;
 NODE_1339914    	175.4053    	0.007637    	                	;
 NODE_1341362    	172.9433    	0.010833    	                	;
 NODE_1341363    	171.1485    	0.004583    	                	;
 NODE_1320958    	174.6339    	0.004617    	                	;
 NODE_1320964    	188.1479    	0.015779    	                	;
 NODE_1341389    	174.8237    	0.004871    	                	;
 NODE_1320967    	182.3539    	0.006875    	                	;
 NODE_1339211    	173.6234    	0.008750    	                	;
 NODE_1316155    	176.4882    	0.004583    	                	;
 NODE_1339205    	176.0990    	0.000000    	                	;
 NODE_1322882    	184.4108    	0.002917    	                	;
 NODE_1341882    	186.8095    	0.002917    	                	;
 NODE_1319579    	187.9977    	0.002917    	                	;
 NODE_1342447    	180.0182    	0.004583    	                	;
 NODE_1341896    	181.5360    	0.001250    	                	;
 NODE_1322892    	175.8981    	0.003333    	                	;
 NODE_1341907    	175.9031    	0.004167    	                	;
 NODE_1322894    	176.1426    	0.010758    	                	;
 NODE_1322895    	175.6542    	0.002083    	                	;
 NODE_1335554    	174.6255    	0.003333    	                	;
 NODE_1342456    	176.0044    	0.003750    	                	;
 NODE_1319732    	174.0770    	0.006896    	                	;
 NODE_1342638    	173.9303    	0.005833    	                	;
 NODE_1322357    	170.7880    	0.004167    	                	;
 NODE_1341408    	172.4811    	0.001250    	                	;
 NODE_1341409    	172.3289    	0.001250    	                	;
 NODE_1341875    	187.9330    	0.005000    	                	;
 NODE_1336973    	174.4194    	0.000000    	                	;