[TITLE]
Converted from Epanet to Staci, case name: kutyahegy.spr


[JUNCTIONS]
;ID              	Elev        	Demand      	Pattern         
 NODE_1318158    	285.6210    	0.000000    	                	;
 NODE_1323833    	326.2076    	0.000000    	                	;
 NODE_1324076    	284.1616    	0.000000    	                	;
 NODE_1321897    	290.5104    	0.000000    	                	;
 NODE_1326213    	308.0494    	0.031250    	                	;
 NODE_1324068    	293.7684    	0.000000    	                	;
 NODE_1317745    	293.4107    	0.002083    	                	;
 NODE_1317746    	295.3733    	0.040833    	                	;
 NODE_1316332    	296.5788    	0.003333    	                	;
 NODE_1312533    	297.2018    	0.000000    	                	;
 NODE_1334927    	288.7120    	0.026250    	                	;
 NODE_1316985    	283.8572    	0.000000    	                	;
 NODE_1325908    	291.2199    	0.001667    	                	;
 NODE_1315736    	289.3296    	0.002083    	                	;
 NODE_1317983    	318.9846    	0.000000    	                	;
 NODE_1324511    	301.8241    	0.000000    	                	;
 NODE_1324042    	318.6525    	0.000000    	                	;
 NODE_1338912    	316.4958    	0.000000    	                	;
 NODE_1324807    	292.6660    	0.000000    	                	;
 NODE_1324510    	301.7451    	0.000000    	                	;
 NODE_1325808    	302.6895    	0.000000    	                	;
 NODE_1312538    	292.3165    	0.040833    	                	;
 NODE_1317282    	289.2490    	0.006667    	                	;
 NODE_1321098    	295.2691    	0.000417    	                	;
 NODE_1312787    	296.0566    	0.002083    	                	;
 NODE_1320346    	298.1510    	0.000000    	                	;
 NODE_1324382    	317.7387    	0.010833    	                	;
 NODE_1324010    	285.7315    	0.007083    	                	;
 NODE_1323835    	325.0798    	0.006250    	                	;
 NODE_1324039    	316.2603    	0.000000    	                	;
 NODE_1324043    	319.2837    	0.000000    	                	;
 NODE_1338739    	317.6426    	0.005000    	                	;
 NODE_1323832    	320.7016    	0.000000    	                	;
 NODE_1331215    	286.6339    	0.000000    	                	;
 NODE_1318015    	288.2173    	0.000000    	                	;
 NODE_1338355    	288.6122    	0.006250    	                	;
 NODE_1325661    	304.0448    	0.001667    	                	;
 NODE_1312786    	294.2968    	0.000417    	                	;
 NODE_1324783    	317.2144    	0.003750    	                	;
 NODE_1320534    	295.0125    	0.000000    	                	;
 NODE_1316984    	292.8081    	0.005833    	                	;
 NODE_1316983    	295.1345    	0.001667    	                	;
 NODE_1318933    	309.0607    	0.000000    	                	;
 NODE_1324728    	308.2938    	0.000000    	                	;
 NODE_1317733    	326.1744    	0.000000    	                	;
 NODE_1324034    	316.5800    	0.000000    	                	;
 NODE_1333187    	289.8487    	0.000000    	                	;
 NODE_1324037    	319.5130    	0.000000    	                	;
 NODE_1324041    	317.7519    	0.000000    	                	;
 NODE_1337031    	318.8000    	0.002083    	                	;
 NODE_1315297    	297.9101    	0.000000    	                	;
 NODE_1318014    	292.8602    	0.000417    	                	;
 NODE_1325807    	305.1495    	0.000000    	                	;
 NODE_1326084    	284.5804    	0.000417    	                	;
 NODE_1315522    	292.2270    	0.000000    	                	;
 NODE_1312532    	298.1000    	0.000000    	                	;
 NODE_1317066    	296.1213    	0.006667    	                	;
 NODE_1312791    	290.4641    	0.000000    	                	;
 NODE_1312792    	291.1050    	0.000000    	                	;
 NODE_1324368    	288.0945    	0.000417    	                	;
 NODE_1324798    	294.9294    	0.007083    	                	;
 NODE_1320011    	309.0725    	0.000000    	                	;
 NODE_1337612    	286.4421    	0.000417    	                	;
 NODE_1325905    	295.2002    	0.002500    	                	;
 NODE_1313903    	318.0443    	0.000000    	                	;
 NODE_1323834    	325.0900    	0.000000    	                	;
 NODE_1324036    	320.4565    	0.000000    	                	;
 NODE_1324808    	292.1862    	0.000000    	                	;
 NODE_1324077    	288.4661    	0.001250    	                	;
 NODE_1319288    	292.6105    	0.000000    	                	;
 NODE_1324078    	294.7925    	0.000417    	                	;
 NODE_1326216    	294.4014    	0.000417    	                	;
 NODE_1312793    	291.1386    	0.006250    	                	;
 NODE_1325662    	306.0076    	0.000000    	                	;
 NODE_1317064    	297.9491    	0.005000    	                	;
 NODE_1312534    	297.3889    	0.009583    	                	;
 NODE_1335699    	296.2236    	0.000000    	                	;
 NODE_1312537    	293.1491    	0.000417    	                	;
 NODE_1325907    	292.2181    	0.005417    	                	;
 NODE_1313904    	318.6983    	0.000000    	                	;
 NODE_1324038    	315.4622    	0.000000    	                	;
 NODE_1319295    	308.9741    	0.000000    	                	;
 NODE_1317749    	287.5602    	0.000000    	                	;
 NODE_1326215    	303.6984    	0.009583    	                	;
 NODE_1316837    	282.0294    	0.002917    	                	;
 NODE_1325663    	307.8841    	0.003750    	                	;
 NODE_1325665    	309.0953    	0.008750    	                	;
 NODE_1321671    	297.6773    	0.000000    	                	;
 NODE_1317299    	294.4152    	0.000000    	                	;
 NODE_1312790    	290.4312    	0.004167    	                	;
 NODE_1321110    	291.6319    	0.002500    	                	;
 NODE_1322233    	293.8037    	0.012917    	                	;
 NODE_1325902    	292.9687    	0.010833    	                	;
 NODE_1324006    	296.3023    	0.006250    	                	;
 NODE_1324004    	291.1773    	0.007500    	                	;
 NODE_1318934    	306.8828    	0.002917    	                	;
 NODE_1323836    	323.5529    	0.000000    	                	;
 NODE_1324035    	320.5986    	0.000000    	                	;
 NODE_1329683    	296.6341    	0.004583    	                	;
 NODE_1326207    	283.6458    	0.006667    	                	;
 NODE_1316181    	288.9228    	0.005833    	                	;
 NODE_1317065    	297.3135    	0.000000    	                	;
 NODE_1312536    	296.2303    	0.005000    	                	;
 NODE_1338100    	293.6840    	0.001667    	                	;
 NODE_1312785    	293.7165    	0.000000    	                	;
 NODE_1312788    	297.2636    	0.000000    	                	;
 NODE_1317300    	290.4369    	0.000000    	                	;
 NODE_1331143    	299.2799    	0.000000    	                	;
 NODE_1334142    	285.7716    	0.004583    	                	;
 NODE_1325906    	293.7629    	0.000000    	                	;
 NODE_1325904    	295.4980    	0.017500    	                	;
 NODE_1325903    	294.3465    	0.000833    	                	;
 NODE_1313905    	319.8667    	0.000000    	                	;
 NODE_1331284    	295.2219    	0.000417    	                	;
 NODE_1324729    	307.6213    	0.008750    	                	;
 NODE_1317734    	315.8487    	0.000000    	                	;
 NODE_1324040    	316.8079    	0.000000    	                	;
 NODE_1317736    	318.6030    	0.000000    	                	;
 NODE_1317301    	289.8754    	0.000000    	                	;
 NODE_1312794    	288.1457    	0.000000    	                	;
 NODE_1312520    	305.8663    	0.000000    	                	;
 NODE_1326901    	308.9017    	0.000000    	                	;
 NODE_1326217    	309.4266    	0.003333    	                	;
 NODE_1324385    	317.5372    	0.000000    	                	;
 NODE_1316329    	307.7617    	0.000000    	                	;
 NODE_1325664    	308.1162    	0.003750    	                	;
 NODE_1312535    	296.8370    	0.002500    	                	;
 NODE_1312789    	298.1971    	0.007083    	                	;
 NODE_1313906    	321.3047    	0.000000    	                	;
 NODE_1313901    	317.7247    	0.000000    	                	;
 NODE_1324727    	309.2516    	0.000000    	                	;
 NODE_1317735    	320.3753    	0.000000    	                	;
 NODE_8752       	309.1500    	0.000000    	                	;
 NODE_8752_1     	308.8620    	0.000000    	                	;
 NODE_4013       	293.8352    	0.000000    	                	;
 NODE_4013_1     	294.0372    	0.000000    	                	;
 NODE_1344899    	309.1768    	0.000000    	                	;
 NODE_1345281    	317.1628    	0.000000    	                	;
 NODE_1335834    	297.9646    	0.000000    	                	;
 NODE_8750       	321.7234    	0.000000    	                	;
 NODE_8750_1     	321.5714    	0.000000    	                	;
 NODE_1344903    	297.9436    	0.000000    	                	;
 NODE_1345279    	321.8077    	0.000000    	                	;
 NODE_3974115    	314.0459    	0.000000    	                	;
 NODE_1345071    	291.7244    	0.000000    	                	;
 NODE_8848       	291.7902    	0.000000    	                	;
 NODE_8848_1     	291.3762    	0.000000    	                	;
 NODE_1346913    	293.7759    	0.000000    	                	;
 NODE_4165       	297.9808    	0.000000    	                	;
 NODE_4165_1     	297.9528    	0.000000    	                	;
 NODE_8753       	309.2061    	0.000000    	                	;
 NODE_8753_1     	308.9181    	0.000000    	                	;
 NODE_8751       	321.8064    	0.000000    	                	;
 NODE_8751_1     	321.6544    	0.000000    	                	;
 NODE_1344345    	291.9040    	0.000000    	                	;
 NODE_8764       	291.7202    	0.000000    	                	;
 NODE_8764_1     	291.6922    	0.000000    	                	;
 NODE_1345278    	321.7153    	0.000000    	                	;
 NODE_1345329    	317.7494    	0.000000    	                	;
 NODE_1345280    	321.8203    	0.000000    	                	;

[RESERVOIRS]
;ID              	Head        	Pattern         
 PRESS_647       	357.0048    	                

[TANKS]
;ID             	Elevation   	InitLevel   	MinLevel    	MaxLevel    	Diameter    	MinVol      	VolCurve

[PIPES]
;ID             	Node1           	Node2           	Length      	Diameter    	Roughness   	MinorLoss   	Status
 PIPE_783022     	NODE_1319295    	NODE_3974115    	40.3765     	110.0000    	0.0200     	0.0000      	Open  ;
 PIPE_1348880    	NODE_1325807    	NODE_1325808    	25.8072     	90.0000     	0.0200     	0.0000      	Open  ;
 PIPE_1348884    	NODE_1319295    	NODE_1326901    	0.6946      	90.0000     	0.0200     	0.0000      	Open  ;
 PIPE_1348885    	NODE_1326901    	NODE_1325807    	30.4941     	90.0000     	0.0200     	0.0000      	Open  ;
 PIPE_1348925    	NODE_1319288    	NODE_1318014    	12.6530     	110.0000    	0.0200     	0.0000      	Open  ;
 PIPE_1348931    	NODE_1324077    	NODE_1321897    	28.0616     	110.0000    	0.0200     	0.0000      	Open  ;
 PIPE_1348941    	NODE_1331215    	NODE_1317749    	23.5320     	110.0000    	0.0200     	0.0000      	Open  ;
 PIPE_1350058    	NODE_1318015    	NODE_1324077    	8.1177      	110.0000    	0.0200     	0.0000      	Open  ;
 PIPE_1350209    	NODE_1337612    	NODE_1331215    	4.9952      	110.0000    	0.0200     	0.0000      	Open  ;
 PIPE_1350825    	NODE_1335834    	NODE_1344903    	1.6608      	110.0000    	0.0200     	0.0000      	Open  ;
 PIPE_1351224    	NODE_1317749    	NODE_1324368    	8.8350      	110.0000    	0.0200     	0.0000      	Open  ;
 PIPE_1353956    	NODE_1345281    	NODE_1324783    	4.4512      	110.0000    	0.0200     	0.0000      	Open  ;
 PIPE_1355493    	NODE_1324798    	NODE_1324078    	8.7903      	110.0000    	0.0200     	0.0000      	Open  ;
 PIPE_1356125    	NODE_1312792    	NODE_1312791    	16.8143     	110.0000    	0.0200     	0.0000      	Open  ;
 PIPE_1356130    	NODE_1312791    	NODE_1312790    	17.7087     	110.0000    	0.0200     	0.0000      	Open  ;
 PIPE_1356512    	NODE_1312788    	NODE_1312789    	11.1414     	110.0000    	0.0200     	0.0000      	Open  ;
 PIPE_1356517    	NODE_1312787    	NODE_1312788    	15.7681     	110.0000    	0.0200     	0.0000      	Open  ;
 PIPE_1356528    	NODE_1312786    	NODE_1317299    	3.4739      	110.0000    	0.0200     	0.0000      	Open  ;
 PIPE_1356532    	NODE_1317299    	NODE_1321098    	5.3280      	110.0000    	0.0200     	0.0000      	Open  ;
 PIPE_1356533    	NODE_1321098    	NODE_1312787    	18.1025     	110.0000    	0.0200     	0.0000      	Open  ;
 PIPE_1356539    	NODE_1344345    	NODE_1312785    	28.8594     	110.0000    	0.0200     	0.0000      	Open  ;
 PIPE_1356540    	NODE_1312785    	NODE_1312786    	14.3724     	110.0000    	0.0200     	0.0000      	Open  ;
 PIPE_1359575    	NODE_1324076    	NODE_1326084    	6.2062      	110.0000    	0.0200     	0.0000      	Open  ;
 PIPE_1360060    	NODE_1324078    	NODE_1326216    	6.9886      	110.0000    	0.0200     	0.0000      	Open  ;
 PIPE_1360247    	NODE_1316837    	NODE_1326207    	23.4448     	110.0000    	0.0200     	0.0000      	Open  ;
 PIPE_1366417    	NODE_1324368    	NODE_1312794    	1.6699      	110.0000    	0.0200     	0.0000      	Open  ;
 PIPE_1366418    	NODE_1312794    	NODE_1318015    	2.3363      	110.0000    	0.0200     	0.0000      	Open  ;
 PIPE_1366423    	NODE_1344345    	NODE_1312793    	15.3561     	110.0000    	0.0200     	0.0000      	Open  ;
 PIPE_1366424    	NODE_1312793    	NODE_1312792    	13.9027     	110.0000    	0.0200     	0.0000      	Open  ;
 PIPE_1369235    	NODE_1326217    	NODE_1324727    	5.7594      	110.0000    	0.0200     	0.0000      	Open  ;
 PIPE_1369236    	NODE_1324727    	NODE_1320011    	27.7870     	110.0000    	0.0200     	0.0000      	Open  ;
 PIPE_1369242    	NODE_1320011    	NODE_1318933    	0.3881      	110.0000    	0.0200     	0.0000      	Open  ;
 PIPE_1369243    	NODE_1318933    	NODE_1312520    	26.7571     	110.0000    	0.0200     	0.0000      	Open  ;
 PIPE_1369376    	NODE_1317736    	NODE_1337031    	21.6247     	110.0000    	0.0200     	0.0000      	Open  ;
 PIPE_1370447    	NODE_1324010    	NODE_1318158    	2.1217      	110.0000    	0.0200     	0.0000      	Open  ;
 PIPE_1371431    	NODE_1324041    	NODE_1317735    	35.3851     	110.0000    	0.0200     	0.0000      	Open  ;
 PIPE_1371436    	NODE_1345281    	NODE_1324040    	16.3076     	110.0000    	0.0200     	0.0000      	Open  ;
 PIPE_1371440    	NODE_1324040    	NODE_1324039    	6.7214      	110.0000    	0.0200     	0.0000      	Open  ;
 PIPE_1371441    	NODE_1324039    	NODE_3974115    	38.9746     	110.0000    	0.0200     	0.0000      	Open  ;
 PIPE_1371450    	NODE_1317734    	NODE_1324038    	2.8141      	63.0000     	0.0200     	0.0000      	Open  ;
 PIPE_1371451    	NODE_1324038    	NODE_3974115    	10.6467     	63.0000     	0.0200     	0.0000      	Open  ;
 PIPE_1371456    	NODE_1324037    	NODE_1317734    	27.4457     	63.0000     	0.0200     	0.0000      	Open  ;
 PIPE_1371460    	NODE_1324035    	NODE_1324036    	0.9807      	63.0000     	0.0200     	0.0000      	Open  ;
 PIPE_1371461    	NODE_1324036    	NODE_1324037    	6.5109      	63.0000     	0.0200     	0.0000      	Open  ;
 PIPE_1371928    	NODE_1316181    	NODE_1333187    	17.0335     	110.0000    	0.0200     	0.0000      	Open  ;
 PIPE_1371929    	NODE_1333187    	NODE_1317301    	0.4903      	110.0000    	0.0200     	0.0000      	Open  ;
 PIPE_1372397    	NODE_1338739    	NODE_1324034    	6.6144      	110.0000    	0.0200     	0.0000      	Open  ;
 PIPE_1372398    	NODE_1324034    	NODE_1338912    	0.8000      	110.0000    	0.0200     	0.0000      	Open  ;
 PIPE_1372403    	NODE_1323836    	NODE_1345279    	16.4001     	63.0000     	0.0200     	0.0000      	Open  ;
 PIPE_1372408    	NODE_1323835    	NODE_1323836    	16.2097     	63.0000     	0.0200     	0.0000      	Open  ;
 PIPE_1372414    	NODE_1323834    	NODE_1323835    	0.2643      	63.0000     	0.0200     	0.0000      	Open  ;
 PIPE_1372418    	NODE_1323833    	NODE_1317733    	0.7475      	63.0000     	0.0200     	0.0000      	Open  ;
 PIPE_1372419    	NODE_1317733    	NODE_1323834    	25.2310     	63.0000     	0.0200     	0.0000      	Open  ;
 PIPE_1372423    	NODE_1317735    	NODE_1323832    	2.5471      	110.0000    	0.0200     	0.0000      	Open  ;
 PIPE_1372424    	NODE_1323832    	NODE_1345279    	22.0163     	110.0000    	0.0200     	0.0000      	Open  ;
 PIPE_1373866    	NODE_1338355    	NODE_1316181    	5.7130      	110.0000    	0.0200     	0.0000      	Open  ;
 PIPE_1380820    	NODE_1317282    	NODE_1312538    	28.0675     	110.0000    	0.0200     	0.0000      	Open  ;
 PIPE_1380825    	NODE_1312538    	NODE_1312537    	8.6849      	110.0000    	0.0200     	0.0000      	Open  ;
 PIPE_1380830    	NODE_1338100    	NODE_1346913    	2.3948      	110.0000    	0.0200     	0.0000      	Open  ;
 PIPE_1380831    	NODE_1312537    	NODE_1338100    	5.5539      	110.0000    	0.0200     	0.0000      	Open  ;
 PIPE_1380836    	NODE_1317066    	NODE_1346913    	20.4346     	110.0000    	0.0200     	0.0000      	Open  ;
 PIPE_1380840    	NODE_1335699    	NODE_1317066    	25.6748     	110.0000    	0.0200     	0.0000      	Open  ;
 PIPE_1380845    	NODE_1312536    	NODE_1335699    	0.7597      	110.0000    	0.0200     	0.0000      	Open  ;
 PIPE_1380855    	NODE_1317065    	NODE_1312535    	12.4721     	110.0000    	0.0200     	0.0000      	Open  ;
 PIPE_1380860    	NODE_1312534    	NODE_1317065    	2.3341      	110.0000    	0.0200     	0.0000      	Open  ;
 PIPE_1380865    	NODE_1312533    	NODE_1312534    	6.5791      	110.0000    	0.0200     	0.0000      	Open  ;
 PIPE_1380870    	NODE_1321671    	NODE_1312533    	8.1654      	110.0000    	0.0200     	0.0000      	Open  ;
 PIPE_1380880    	NODE_1317064    	NODE_1312532    	4.1481      	110.0000    	0.0200     	0.0000      	Open  ;
 PIPE_1380881    	NODE_1312532    	NODE_1321671    	7.5475      	110.0000    	0.0200     	0.0000      	Open  ;
 PIPE_1385817    	NODE_1324783    	NODE_1324382    	13.6964     	110.0000    	0.0200     	0.0000      	Open  ;
 PIPE_1385818    	NODE_1324382    	NODE_1324041    	3.4973      	110.0000    	0.0200     	0.0000      	Open  ;
 PIPE_1387073    	NODE_1312535    	NODE_1316332    	6.7320      	110.0000    	0.0200     	0.0000      	Open  ;
 PIPE_1387150    	NODE_1325665    	NODE_1326217    	13.0124     	110.0000    	0.0200     	0.0000      	Open  ;
 PIPE_1387154    	NODE_1324729    	NODE_1325664    	11.0497     	110.0000    	0.0200     	0.0000      	Open  ;
 PIPE_1387155    	NODE_1325664    	NODE_1324728    	10.2462     	110.0000    	0.0200     	0.0000      	Open  ;
 PIPE_1387160    	NODE_1326213    	NODE_1316329    	8.3588      	110.0000    	0.0200     	0.0000      	Open  ;
 PIPE_1387161    	NODE_1316329    	NODE_1324729    	18.0355     	110.0000    	0.0200     	0.0000      	Open  ;
 PIPE_1387167    	NODE_1318934    	NODE_1325663    	17.8323     	110.0000    	0.0200     	0.0000      	Open  ;
 PIPE_1387168    	NODE_1325663    	NODE_1326213    	11.6657     	110.0000    	0.0200     	0.0000      	Open  ;
 PIPE_1387174    	NODE_1325662    	NODE_1318934    	17.6360     	110.0000    	0.0200     	0.0000      	Open  ;
 PIPE_1387179    	NODE_1326215    	NODE_1325661    	12.9200     	110.0000    	0.0200     	0.0000      	Open  ;
 PIPE_1387180    	NODE_1325661    	NODE_1325662    	28.6488     	110.0000    	0.0200     	0.0000      	Open  ;
 PIPE_1387417    	NODE_1312789    	NODE_1320346    	1.9447      	110.0000    	0.0200     	0.0000      	Open  ;
 PIPE_1387418    	NODE_1320346    	NODE_1335834    	10.8829     	110.0000    	0.0200     	0.0000      	Open  ;
 PIPE_1388396    	NODE_1324807    	NODE_1315522    	15.7380     	110.0000    	0.0200     	0.0000      	Open  ;
 PIPE_1388397    	NODE_1315522    	NODE_1324808    	1.4623      	110.0000    	0.0200     	0.0000      	Open  ;
 PIPE_1389403    	NODE_1344899    	NODE_1324385    	68.8452     	110.0000    	0.0200     	0.0000      	Open  ;
 PIPE_1389404    	NODE_1324385    	NODE_1345278    	31.7235     	110.0000    	0.0200     	0.0000      	Open  ;
 PIPE_1389845    	NODE_1324004    	NODE_1315736    	23.9821     	110.0000    	0.0200     	0.0000      	Open  ;
 PIPE_1389858    	NODE_1316332    	NODE_1324006    	18.2108     	110.0000    	0.0200     	0.0000      	Open  ;
 PIPE_1389859    	NODE_1324006    	NODE_1312536    	14.6470     	110.0000    	0.0200     	0.0000      	Open  ;
 PIPE_1389910    	NODE_1324807    	NODE_1325902    	9.4258      	110.0000    	0.0200     	0.0000      	Open  ;
 PIPE_1389915    	NODE_1325902    	NODE_1325903    	14.0188     	110.0000    	0.0200     	0.0000      	Open  ;
 PIPE_1389922    	NODE_1325904    	NODE_1317746    	6.8335      	110.0000    	0.0200     	0.0000      	Open  ;
 PIPE_1389933    	NODE_1317746    	NODE_1325905    	8.6916      	110.0000    	0.0200     	0.0000      	Open  ;
 PIPE_1389934    	NODE_1325905    	NODE_1316983    	3.2997      	110.0000    	0.0200     	0.0000      	Open  ;
 PIPE_1389939    	NODE_1326216    	NODE_1322233    	19.5368     	110.0000    	0.0200     	0.0000      	Open  ;
 PIPE_1389940    	NODE_1322233    	NODE_1324068    	4.0261      	110.0000    	0.0200     	0.0000      	Open  ;
 PIPE_1389945    	NODE_1324068    	NODE_1325906    	0.6239      	110.0000    	0.0200     	0.0000      	Open  ;
 PIPE_1389946    	NODE_1325906    	NODE_1317745    	11.1868     	110.0000    	0.0200     	0.0000      	Open  ;
 PIPE_1389951    	NODE_1317745    	NODE_1316984    	8.5355      	110.0000    	0.0200     	0.0000      	Open  ;
 PIPE_1389952    	NODE_1316984    	NODE_1319288    	2.7515      	110.0000    	0.0200     	0.0000      	Open  ;
 PIPE_1389957    	NODE_1318014    	NODE_1325907    	5.8549      	110.0000    	0.0200     	0.0000      	Open  ;
 PIPE_1389958    	NODE_1325907    	NODE_1345071    	8.3515      	110.0000    	0.0200     	0.0000      	Open  ;
 PIPE_1389963    	NODE_1321110    	NODE_1345071    	14.7986     	110.0000    	0.0200     	0.0000      	Open  ;
 PIPE_1389967    	NODE_1321897    	NODE_1325908    	9.5597      	110.0000    	0.0200     	0.0000      	Open  ;
 PIPE_1389968    	NODE_1325908    	NODE_1321110    	6.6158      	110.0000    	0.0200     	0.0000      	Open  ;
 PIPE_1389973    	NODE_1326207    	NODE_1316985    	5.5277      	110.0000    	0.0200     	0.0000      	Open  ;
 PIPE_1389974    	NODE_1316985    	NODE_1324076    	8.1460      	110.0000    	0.0200     	0.0000      	Open  ;
 PIPE_1392327    	NODE_1325903    	NODE_1331284    	7.5172      	110.0000    	0.0200     	0.0000      	Open  ;
 PIPE_1392328    	NODE_1331284    	NODE_1325904    	10.9128     	110.0000    	0.0200     	0.0000      	Open  ;
 PIPE_1393055    	NODE_1316983    	NODE_1320534    	6.1221      	110.0000    	0.0200     	0.0000      	Open  ;
 PIPE_1393056    	NODE_1320534    	NODE_1324798    	4.4641      	110.0000    	0.0200     	0.0000      	Open  ;
 PIPE_1393835    	NODE_1345329    	NODE_1313901    	0.5325      	110.0000    	0.0200     	0.0000      	Open  ;
 PIPE_1393836    	NODE_1313901    	NODE_1338739    	1.7731      	110.0000    	0.0200     	0.0000      	Open  ;
 PIPE_1393841    	NODE_1324042    	NODE_1313903    	12.7451     	110.0000    	0.0200     	0.0000      	Open  ;
 PIPE_1393842    	NODE_1313903    	NODE_1345329    	6.1802      	110.0000    	0.0200     	0.0000      	Open  ;
 PIPE_1393847    	NODE_1337031    	NODE_1317983    	3.9694      	110.0000    	0.0200     	0.0000      	Open  ;
 PIPE_1393848    	NODE_1317983    	NODE_1324042    	15.4551     	110.0000    	0.0200     	0.0000      	Open  ;
 PIPE_1393854    	NODE_1324043    	NODE_1313904    	16.6183     	110.0000    	0.0200     	0.0000      	Open  ;
 PIPE_1393855    	NODE_1313904    	NODE_1317736    	2.7060      	110.0000    	0.0200     	0.0000      	Open  ;
 PIPE_1394531    	NODE_1313905    	NODE_1324043    	13.1698     	110.0000    	0.0200     	0.0000      	Open  ;
 PIPE_1394536    	NODE_1345280    	NODE_1313906    	29.0259     	110.0000    	0.0200     	0.0000      	Open  ;
 PIPE_1394537    	NODE_1313906    	NODE_1313905    	28.3119     	110.0000    	0.0200     	0.0000      	Open  ;
 PIPE_1397400    	NODE_1344903    	NODE_1315297    	18.4723     	110.0000    	0.0200     	0.0000      	Open  ;
 PIPE_1397401    	NODE_1315297    	NODE_1317064    	0.5789      	110.0000    	0.0200     	0.0000      	Open  ;
 PIPE_1405408    	NODE_1325808    	NODE_1331143    	29.4215     	90.0000     	0.0200     	0.0000      	Open  ;
 PIPE_1405409    	NODE_1331143    	NODE_1329683    	34.4852     	90.0000     	0.0200     	0.0000      	Open  ;
 PIPE_1408852    	NODE_1326084    	NODE_1334142    	21.1033     	110.0000    	0.0200     	0.0000      	Open  ;
 PIPE_1408853    	NODE_1334142    	NODE_1337612    	26.0930     	110.0000    	0.0200     	0.0000      	Open  ;
 PIPE_1410306    	NODE_1315736    	NODE_1334927    	8.4880      	110.0000    	0.0200     	0.0000      	Open  ;
 PIPE_1410307    	NODE_1334927    	NODE_1324010    	31.4047     	110.0000    	0.0200     	0.0000      	Open  ;
 PIPE_2812750    	NODE_1344903    	NODE_4165_1     	0.4540      	110.0000    	0.0200     	0.0000      	Open  ;
 PIPE_2812751    	NODE_4165       	NODE_1344899    	105.3864    	110.0000    	0.0200     	0.0000      	Open  ;
 PIPE_2826232    	NODE_1344345    	NODE_8848_1     	0.8216      	110.0000    	0.0200     	0.0000      	Open  ;
 PIPE_2826233    	NODE_8848       	NODE_1316837    	117.1965    	110.0000    	0.0200     	0.0000      	Open  ;
 PIPE_2830015    	NODE_1345071    	NODE_8764_1     	0.2000      	110.0000    	0.0200     	0.0000      	Open  ;
 PIPE_2830016    	NODE_8764       	NODE_1324004    	22.3647     	110.0000    	0.0200     	0.0000      	Open  ;
 PIPE_2831822    	NODE_1344899    	NODE_8753_1     	0.3000      	110.0000    	0.0200     	0.0000      	Open  ;
 PIPE_2831823    	NODE_8753       	NODE_1325665    	20.3417     	110.0000    	0.0200     	0.0000      	Open  ;
 PIPE_2831829    	NODE_1324728    	NODE_8752_1     	17.6943     	110.0000    	0.0200     	0.0000      	Open  ;
 PIPE_2831830    	NODE_8752       	NODE_1344899    	0.3000      	110.0000    	0.0200     	0.0000      	Open  ;
 PIPE_2831836    	NODE_1345278    	NODE_8751_1     	0.6769      	110.0000    	0.0200     	0.0000      	Open  ;
 PIPE_2831837    	NODE_8751       	NODE_1345280    	0.1008      	110.0000    	0.0200     	0.0000      	Open  ;
 PIPE_2831842    	NODE_1345279    	NODE_8750_1     	3.1130      	110.0000    	0.0200     	0.0000      	Open  ;
 PIPE_2831843    	NODE_8750       	NODE_1345278    	0.3000      	110.0000    	0.0200     	0.0000      	Open  ;
 PIPE_2845389    	NODE_1329683    	NODE_4013_1     	31.2511     	90.0000     	0.0200     	0.0000      	Open  ;
 PIPE_2845390    	NODE_4013       	NODE_1346913    	0.7000      	90.0000     	0.0200     	0.0000      	Open  ;
 PIPE_2847802    	PRESS_647       	NODE_1317282    	15.0248     	110.0000    	0.0200     	0.0000      	Open  ;
 PIPE_6274512    	NODE_1324510    	NODE_1324511    	0.5204      	110.0000    	0.0200     	0.0000      	Open  ;
 PIPE_6274513    	NODE_1324511    	NODE_1326215    	20.8789     	110.0000    	0.0200     	0.0000      	Open  ;
 PIPE_6274555    	NODE_1312790    	NODE_1317300    	4.7626      	110.0000    	0.0200     	0.0000      	Open  ;
 PIPE_6274556    	NODE_1317300    	NODE_1338355    	23.8755     	110.0000    	0.0200     	0.0000      	Open  ;

[PUMPS]
;ID             	Node1           	Node2           	Parameters

[VALVES]
;ID             	Node1           	Node2           	Diameter    	Type	Setting     	MinorLoss   
 VALVE_8764      	NODE_8764       	NODE_8764_1     	100.0000    	ISO 	0.0000      	0.0000      
 VALVE_4013      	NODE_4013       	NODE_4013_1     	100.0000    	ISO 	0.0000      	0.0000      
 VALVE_8753      	NODE_8753       	NODE_8753_1     	100.0000    	ISO 	0.0000      	0.0000      
 VALVE_8848      	NODE_8848       	NODE_8848_1     	100.0000    	ISO 	0.0000      	0.0000      
 VALVE_4165      	NODE_4165       	NODE_4165_1     	100.0000    	ISO 	0.0000      	0.0000      
 VALVE_8752      	NODE_8752       	NODE_8752_1     	100.0000    	ISO 	0.0000      	0.0000      
 VALVE_8750      	NODE_8750       	NODE_8750_1     	100.0000    	ISO 	0.0000      	0.0000      
 VALVE_8751      	NODE_8751       	NODE_8751_1     	100.0000    	ISO 	0.0000      	0.0000      

[TAGS]

[DEMANDS]
;Junction       	Demand      	Pattern         	Category

[STATUS]
;ID              	Status/Setting

[PATTERNS]
;ID             	Multipliers

[CURVES]
;ID             	X-Value     	Y-Value

[CONTROLS]

[RULES]

[ENERGY]

[EMITTERS]

[QUALITY]

[SOURCES]

[REACTIONS]

[MIXING]

[TIMES]

[REPORT]

[OPTIONS]
 Units              	LPS
 Headloss           	C-F
 Specific Gravity   	1.0
 Viscosity          	1.0
 Trials             	40
 Accuracy           	0.001
 CHECKFREQ          	2
 MAXCHECK           	10
 DAMPLIMIT          	0
 Unbalanced         	Continue 10
 Pattern            	1
 Demand Multiplier  	1.0
 Emitter Exponent   	0.5
 Quality            	Chlorine mg/L
 Diffusivity        	1.0
 Tolerance          	0.01

[COORDINATES]
;Node           	X-Coord         	Y-Coord
 NODE_1318158    	262785.6924     	461853.4369     
 NODE_1323833    	262655.1624     	461375.1241     
 NODE_1324076    	262883.4163     	461720.2627     
 NODE_1321897    	262762.2075     	461769.6162     
 NODE_1326213    	262770.7598     	461496.7555     
 NODE_1324068    	262690.8007     	461806.3489     
 NODE_1317745    	262699.3952     	461798.2478     
 NODE_1317746    	262642.1439     	461844.3029     
 NODE_1316332    	262689.6445     	461647.5739     
 NODE_1312533    	262715.0290     	461635.5018     
 NODE_1334927    	262765.6762     	461826.5413     
 NODE_1316985    	262890.8743     	461716.9861     
 NODE_1325908    	262753.4258     	461773.3938     