[TITLE]
Converted from Epanet to Staci, case name: lovo2.spr


[JUNCTIONS]
;ID              	Elev        	Demand      	Pattern         
 NODE_5651889    	194.3990    	0.000000    	                	;
 NODE_1320659    	181.0888    	0.000000    	                	;
 NODE_1329033    	180.5337    	0.000000    	                	;
 NODE_1329031    	174.1735    	0.000000    	                	;
 NODE_1329012    	180.2317    	0.000000    	                	;
 NODE_1329170    	193.5511    	0.002500    	                	;
 NODE_1319875    	194.2874    	0.001667    	                	;
 NODE_1340509    	196.9051    	0.000000    	                	;
 NODE_1328065    	194.1117    	0.000833    	                	;
 NODE_1320238    	194.3091    	0.000000    	                	;
 NODE_1327238    	196.1755    	0.000000    	                	;
 NODE_1337805    	184.6263    	0.000000    	                	;
 NODE_1321207    	195.0412    	0.000000    	                	;
 NODE_1340708    	185.6521    	0.002917    	                	;
 NODE_1340732    	197.7990    	0.000000    	                	;
 NODE_1337373    	183.7733    	0.002083    	                	;
 NODE_1331921    	185.0104    	0.004167    	                	;
 NODE_1318111    	183.4686    	0.003333    	                	;
 NODE_1331926    	184.6792    	0.001042    	                	;
 NODE_1318526    	182.6616    	0.004583    	                	;
 NODE_1331230    	183.1715    	0.000000    	                	;
 NODE_1332149    	184.7392    	0.000000    	                	;
 NODE_1332661    	177.9059    	0.000000    	                	;
 NODE_1319023    	178.2786    	0.000000    	                	;
 NODE_1319024    	185.3255    	0.004583    	                	;
 NODE_8176685    	179.9622    	0.000000    	                	;
 NODE_8176698    	182.2143    	0.000000    	                	;
 NODE_4576154    	194.4016    	0.000592    	                	;
 NODE_1319331    	193.9504    	0.000833    	                	;
 NODE_1319876    	195.2431    	0.000833    	                	;
 NODE_1329353    	193.9496    	0.006250    	                	;
 NODE_1331652    	195.2993    	0.001250    	                	;
 NODE_1329802    	194.6230    	0.003333    	                	;
 NODE_1321613    	194.0646    	0.000000    	                	;
 NODE_1337406    	193.8883    	0.000417    	                	;
 NODE_1319881    	193.1527    	0.002083    	                	;
 NODE_1321612    	194.0364    	0.005304    	                	;
 NODE_1320689    	194.6381    	0.006667    	                	;
 NODE_1319867    	193.9629    	0.002917    	                	;
 NODE_1319868    	194.0317    	0.000417    	                	;
 NODE_1319869    	194.5448    	0.002083    	                	;
 NODE_1329786    	194.4004    	0.000000    	                	;
 NODE_1329169    	193.5271    	0.002500    	                	;
 NODE_1319873    	194.7069    	0.000000    	                	;
 NODE_1329348    	193.4673    	0.004167    	                	;
 NODE_1316383    	184.6492    	0.003262    	                	;
 NODE_1329006    	182.5206    	0.001250    	                	;
 NODE_1329823    	174.1671    	0.001667    	                	;
 NODE_1329411    	175.5522    	0.002500    	                	;
 NODE_1322111    	182.8670    	0.002917    	                	;
 NODE_1322113    	178.5750    	0.005012    	                	;
 NODE_1319443    	177.0108    	0.004167    	                	;
 NODE_1338230    	176.5708    	0.000000    	                	;
 NODE_1322589    	178.6592    	0.000833    	                	;
 NODE_1337292    	197.9540    	0.002500    	                	;
 NODE_1330379    	195.9950    	0.002500    	                	;
 NODE_1337293    	196.5697    	0.000000    	                	;
 NODE_1330589    	196.1382    	0.004583    	                	;
 NODE_1320217    	196.7303    	0.000417    	                	;
 NODE_1328519    	178.3571    	0.005000    	                	;
 NODE_1321614    	176.8913    	0.004583    	                	;
 NODE_1329942    	179.3504    	0.000417    	                	;
 NODE_1330857    	177.0540    	0.001667    	                	;
 NODE_1328869    	176.7845    	0.000833    	                	;
 NODE_1322594    	182.7389    	0.000000    	                	;
 NODE_1328870    	178.9273    	0.005000    	                	;
 NODE_1331665    	177.4615    	0.005000    	                	;
 NODE_1321542    	179.0333    	0.007500    	                	;
 NODE_1329967    	181.8908    	0.000571    	                	;
 NODE_1322602    	181.3777    	0.003333    	                	;
 NODE_1329972    	181.0182    	0.002917    	                	;
 NODE_1322456    	184.0520    	0.005000    	                	;
 NODE_1328838    	181.7171    	0.000833    	                	;
 NODE_1321545    	177.6099    	0.001250    	                	;
 NODE_1328849    	182.0460    	0.000000    	                	;
 NODE_1321620    	175.0621    	0.002083    	                	;
 NODE_1321549    	181.5305    	0.003750    	                	;
 NODE_1318190    	176.2363    	0.000833    	                	;
 NODE_1337640    	179.0779    	0.001250    	                	;
 NODE_1329067    	181.0328    	0.002083    	                	;
 NODE_1337052    	179.6907    	0.003750    	                	;
 NODE_1337057    	174.5023    	0.000000    	                	;
 NODE_1337060    	176.1866    	0.003750    	                	;
 NODE_1329477    	181.8418    	0.002917    	                	;
 NODE_1329479    	181.0356    	0.004167    	                	;
 NODE_1329393    	180.4327    	0.002917    	                	;
 NODE_1329394    	181.0672    	0.000000    	                	;
 NODE_1329396    	182.4723    	0.003333    	                	;
 NODE_1329399    	174.6411    	0.000138    	                	;
 NODE_1319347    	174.6143    	0.002917    	                	;
 NODE_1319349    	175.1489    	0.000000    	                	;
 NODE_1329814    	174.9513    	0.000417    	                	;
 NODE_1329816    	175.3556    	0.000000    	                	;
 NODE_1319884    	174.9497    	0.000000    	                	;
 NODE_1328864    	181.8317    	0.000417    	                	;
 NODE_1329504    	184.1031    	0.004167    	                	;
 NODE_1322110    	184.2202    	0.003750    	                	;
 NODE_1316382    	182.9705    	0.002500    	                	;
 NODE_1327823    	194.9425    	0.002917    	                	;
 NODE_1328040    	192.9559    	0.002083    	                	;
 NODE_1320231    	192.6713    	0.006667    	                	;
 NODE_1338213    	192.4833    	0.003333    	                	;
 NODE_1320653    	196.9119    	0.000000    	                	;
 NODE_1339724    	195.6494    	0.001250    	                	;
 NODE_1335961    	196.5940    	0.002500    	                	;
 NODE_1331618    	195.6015    	0.000000    	                	;
 NODE_1338507    	197.0902    	0.000000    	                	;
 NODE_1339751    	196.0805    	0.003750    	                	;
 NODE_1338202    	195.3194    	0.001250    	                	;
 NODE_1339759    	193.8443    	0.002500    	                	;
 NODE_1319597    	191.1572    	0.004167    	                	;
 NODE_1340310    	190.1220    	0.005833    	                	;
 NODE_1321751    	191.5289    	0.002500    	                	;
 NODE_1340493    	191.1993    	0.000000    	                	;
 NODE_1340494    	190.7495    	0.002500    	                	;
 NODE_1321753    	189.8328    	0.002083    	                	;
 NODE_1340497    	189.9375    	0.006667    	                	;
 NODE_1340502    	191.3216    	0.000000    	                	;
 NODE_1321756    	197.0603    	0.007083    	                	;
 NODE_1338886    	196.0086    	0.005417    	                	;
 NODE_1321563    	176.2246    	0.000625    	                	;
 NODE_1338703    	176.4810    	0.001250    	                	;
 NODE_1341809    	176.3773    	0.001667    	                	;
 NODE_1341811    	175.9131    	0.001250    	                	;
 NODE_1320144    	176.4357    	0.002500    	                	;
 NODE_1322130    	176.5178    	0.004167    	                	;
 NODE_1342327    	180.9865    	0.000000    	                	;
 NODE_1322134    	175.5750    	0.004583    	                	;
 NODE_1342339    	180.4795    	0.001250    	                	;
 NODE_1341792    	178.4880    	0.006250    	                	;
 NODE_1341797    	180.1179    	0.000417    	                	;
 NODE_1321561    	180.1191    	0.000208    	                	;
 NODE_1338285    	180.7566    	0.000000    	                	;
 NODE_1340727    	195.4321    	0.004167    	                	;
 NODE_1340731    	194.7717    	0.000000    	                	;
 NODE_1340401    	194.5122    	0.007725    	                	;
 NODE_1340409    	183.1182    	0.003079    	                	;
 NODE_1321484    	182.9796    	0.003333    	                	;
 NODE_1341550    	182.6942    	0.002917    	                	;
 NODE_1341560    	191.5066    	0.000000    	                	;
 NODE_1321489    	193.1384    	0.002917    	                	;
 NODE_1341565    	193.0538    	0.003750    	                	;
 NODE_1339422    	187.3088    	0.003750    	                	;
 NODE_1341571    	194.4741    	0.000417    	                	;
 NODE_1321728    	194.5820    	0.003750    	                	;
 NODE_1321494    	195.1604    	0.005000    	                	;
 NODE_1341574    	196.4580    	0.002083    	                	;
 NODE_1341576    	197.1602    	0.001250    	                	;
 NODE_1321495    	182.8961    	0.000000    	                	;
 NODE_1321497    	188.8686    	0.000417    	                	;
 NODE_1321498    	185.5765    	0.007500    	                	;
 NODE_1339428    	185.7705    	0.007917    	                	;
 NODE_1339430    	185.3276    	0.003333    	                	;
 NODE_1339434    	185.6071    	0.003750    	                	;
 NODE_1339435    	185.4133    	0.000833    	                	;
 NODE_1321499    	188.2351    	0.001667    	                	;
 NODE_1341585    	189.7819    	0.002500    	                	;
 NODE_1342099    	189.7153    	0.001250    	                	;
 NODE_1342101    	189.4552    	0.005417    	                	;
 NODE_1342106    	187.3383    	0.004167    	                	;
 NODE_1331509    	185.2193    	0.000833    	                	;
 NODE_1342118    	180.0083    	0.000000    	                	;
 NODE_1342119    	181.0660    	0.005000    	                	;
 NODE_1339966    	182.4141    	0.002917    	                	;
 NODE_1320512    	182.2692    	0.002083    	                	;
 NODE_1320513    	181.8795    	0.003333    	                	;
 NODE_1339972    	182.3147    	0.003333    	                	;
 NODE_1340231    	182.9177    	0.005417    	                	;
 NODE_1319047    	178.4539    	0.007083    	                	;
 NODE_1342125    	179.4597    	0.004167    	                	;
 NODE_1342126    	179.9251    	0.001667    	                	;
 NODE_1338279    	179.5045    	0.001250    	                	;
 NODE_1342131    	180.7151    	0.001667    	                	;
 NODE_1321741    	183.4642    	0.002500    	                	;
 NODE_1340235    	183.5735    	0.002083    	                	;
 NODE_1342627    	180.3545    	0.002083    	                	;
 NODE_1340194    	183.7952    	0.005854    	                	;
 NODE_1340195    	180.9140    	0.000000    	                	;
 NODE_1340196    	179.7640    	0.002917    	                	;
 NODE_1340411    	195.7812    	0.008500    	                	;
 NODE_1340412    	194.9975    	0.000833    	                	;
 NODE_1342632    	181.1052    	0.000000    	                	;
 NODE_1323099    	180.8219    	0.002083    	                	;
 NODE_1340200    	187.0562    	0.004583    	                	;
 NODE_1342831    	181.7189    	0.003333    	                	;
 NODE_1342833    	181.5636    	0.002083    	                	;
 NODE_1342841    	180.8898    	0.002083    	                	;
 NODE_1323106    	181.6608    	0.000833    	                	;
 NODE_1340896    	196.9133    	0.002500    	                	;
 NODE_1342850    	180.6900    	0.000833    	                	;
 NODE_1323108    	180.3740    	0.005417    	                	;
 NODE_1341062    	191.2194    	0.002500    	                	;
 NODE_1335617    	191.0222    	0.000833    	                	;
 NODE_1320399    	191.3654    	0.001667    	                	;
 NODE_1341541    	184.6881    	0.001667    	                	;
 NODE_1331209    	185.5535    	0.001667    	                	;
 NODE_1319438    	185.5952    	0.001667    	                	;
 NODE_1319442    	186.5619    	0.003321    	                	;
 NODE_1331527    	185.7119    	0.002083    	                	;
 NODE_1329221    	194.1430    	0.000000    	                	;
 NODE_1337638    	181.6067    	0.018821    	                	;
 NODE_1336399    	182.4536    	0.003087    	                	;
 NODE_1317893    	181.7192    	0.002917    	                	;
 NODE_1340947    	194.4390    	0.006750    	                	;
 NODE_1340946    	195.5724    	0.005000    	                	;
 NODE_1337528    	184.3558    	0.007462    	                	;
 NODE_1337639    	185.6718    	0.000417    	                	;
 NODE_1335776    	184.5031    	0.000000    	                	;
 NODE_1335777    	184.7410    	0.004583    	                	;
 NODE_1335779    	185.8095    	0.000000    	                	;
 NODE_1335780    	180.7190    	0.006250    	                	;
 NODE_1336221    	181.4564    	0.004583    	                	;
 NODE_1336223    	184.8721    	0.001667    	                	;
 NODE_1315615    	179.3709    	0.002500    	                	;
 NODE_1323471    	181.2154    	0.000000    	                	;
 NODE_1323473    	181.6984    	0.008333    	                	;
 NODE_1323474    	181.7530    	0.004583    	                	;
 NODE_1315617    	181.5838    	0.005417    	                	;
 NODE_1322985    	181.2905    	0.005833    	                	;
 NODE_1323486    	183.2037    	0.002500    	                	;
 NODE_1315624    	181.6983    	0.001250    	                	;
 NODE_1334320    	183.9551    	0.004583    	                	;
 NODE_1317224    	182.7041    	0.001042    	                	;
 NODE_1334517    	184.5657    	0.002083    	                	;
 NODE_1334522    	184.5582    	0.003750    	                	;
 NODE_1334526    	184.9496    	0.002083    	                	;
 NODE_1322016    	185.5197    	0.003333    	                	;
 NODE_1326623    	179.3991    	0.004167    	                	;
 NODE_1318806    	181.1470    	0.000833    	                	;
 NODE_1326634    	181.2039    	0.000417    	                	;
 NODE_1326637    	183.1546    	0.005417    	                	;
 NODE_1322984    	183.3767    	0.000208    	                	;
 NODE_1326643    	178.1577    	0.002083    	                	;
 NODE_1318811    	179.0378    	0.000000    	                	;
 NODE_1326645    	179.7196    	0.004583    	                	;
 NODE_1326843    	181.2268    	0.003333    	                	;
 NODE_1323281    	180.3283    	0.002917    	                	;
 NODE_1323285    	178.7126    	0.007917    	                	;
 NODE_1323286    	178.0501    	0.000208    	                	;
 NODE_1320292    	175.9504    	0.000000    	                	;
 NODE_1329797    	195.1515    	0.003333    	                	;
 NODE_1331110    	193.9921    	0.003333    	                	;
 NODE_1328060    	193.5690    	0.003750    	                	;
 NODE_1330380    	192.3193    	0.002500    	                	;
 NODE_1329806    	195.1300    	0.002500    	                	;
 NODE_1322783    	193.9701    	0.000000    	                	;
 NODE_1341578    	183.4436    	0.002917    	                	;
 NODE_1342117    	181.8024    	0.000417    	                	;
 NODE_1321042    	180.6877    	0.001250    	                	;
 NODE_1316110    	184.6932    	0.000000    	                	;
 NODE_1316100    	181.3279    	0.000000    	                	;
 NODE_1340390    	183.0675    	0.003333    	                	;
 NODE_1321748    	189.4783    	0.001875    	                	;
 NODE_1340393    	182.0644    	0.000000    	                	;
 NODE_1319064    	194.6247    	0.019367    	                	;
 NODE_1321038    	174.3951    	0.000000    	                	;
 NODE_1331924    	185.2597    	0.004583    	                	;
 NODE_1322215    	184.7746    	0.000417    	                	;
 NODE_1331927    	182.3982    	0.005000    	                	;
 NODE_1336610    	182.3698    	0.002500    	                	;
 NODE_1332133    	181.6499    	0.003333    	                	;
 NODE_1332136    	183.2464    	0.001250    	                	;
 NODE_1332143    	183.2125    	0.002917    	                	;
 NODE_1332144    	182.2000    	0.003333    	                	;
 NODE_1318527    	185.9078    	0.005000    	                	;
 NODE_1332147    	183.0086    	0.006250    	                	;
 NODE_1332151    	184.9894    	0.000000    	                	;
 NODE_1332648    	184.9657    	0.000000    	                	;
 NODE_1332654    	183.2086    	0.000000    	                	;
 NODE_1319022    	178.3189    	0.000000    	                	;
 NODE_1337642    	181.2510    	0.000000    	                	;
 NODE_1319353    	194.4521    	0.003333    	                	;
 NODE_1329356    	193.8561    	0.011667    	                	;
 NODE_1338228    	193.9496    	0.000833    	                	;
 NODE_1329412    	193.6174    	0.001250    	                	;
 NODE_1319882    	193.1627    	0.000000    	                	;
 NODE_1320693    	193.9908    	0.002083    	                	;
 NODE_1331083    	193.3629    	0.006667    	                	;
 NODE_1323052    	193.1467    	0.002917    	                	;
 NODE_1329778    	194.0516    	0.001667    	                	;
 NODE_1329783    	194.5308    	0.005000    	                	;
 NODE_1329167    	193.4265    	0.000625    	                	;
 NODE_1320247    	194.3938    	0.006250    	                	;
 NODE_1329791    	194.3370    	0.007500    	                	;
 NODE_1319329    	193.5642    	0.005417    	                	;
 NODE_1329462    	181.9233    	0.000833    	                	;
 NODE_1322459    	174.6043    	0.004167    	                	;
 NODE_1329017    	177.6162    	0.000000    	                	;
 NODE_1329020    	180.3120    	0.001667    	                	;
 NODE_1320658    	180.8733    	0.001250    	                	;
 NODE_1329820    	174.6421    	0.010417    	                	;
 NODE_1329828    	176.3777    	0.000000    	                	;
 NODE_1319889    	176.0255    	0.007892    	                	;
 NODE_1331125    	176.3242    	0.007083    	                	;
 NODE_1329833    	177.0942    	0.003750    	                	;
 NODE_1329517    	179.6501    	0.000208    	                	;
 NODE_1322995    	179.5718    	0.004167    	                	;
 NODE_1329939    	178.2867    	0.005417    	                	;
 NODE_1329940    	178.3515    	0.000833    	                	;
 NODE_1328522    	178.7740    	0.000000    	                	;
 NODE_1330373    	195.5634    	0.005000    	                	;
 NODE_1330376    	191.4179    	0.000000    	                	;
 NODE_1330378    	196.0099    	0.004583    	                	;
 NODE_1322827    	196.6395    	0.003333    	                	;
 NODE_1327791    	196.8681    	0.000833    	                	;
 NODE_1327796    	197.3957    	0.002500    	                	;
 NODE_1327801    	197.5552    	0.007500    	                	;
 NODE_1327807    	197.3810    	0.001250    	                	;
 NODE_1320222    	197.2341    	0.002917    	                	;
 NODE_1327808    	197.1458    	0.004167    	                	;
 NODE_1320223    	196.8469    	0.000000    	                	;
 NODE_1320224    	198.0964    	0.005000    	                	;
 NODE_1322782    	198.6816    	0.000000    	                	;
 NODE_1328520    	181.4549    	0.005104    	                	;
 NODE_1335798    	181.6689    	0.000000    	                	;
 NODE_1321260    	176.6572    	0.000058    	                	;
 NODE_1319892    	176.5442    	0.002917    	                	;
 NODE_1329839    	176.4276    	0.000000    	                	;
 NODE_1322590    	178.3716    	0.005417    	                	;
 NODE_1322591    	179.0771    	0.003333    	                	;
 NODE_1329944    	179.7620    	0.002500    	                	;
 NODE_1329946    	182.0857    	0.001250    	                	;
 NODE_1329947    	182.1360    	0.000000    	                	;
 NODE_1322593    	182.4161    	0.000417    	                	;
 NODE_1319895    	177.0671    	0.005833    	                	;
 NODE_1329955    	181.7361    	0.002083    	                	;
 NODE_1330052    	176.5279    	0.007917    	                	;
 NODE_1338231    	176.1810    	0.002917    	                	;
 NODE_1322600    	182.0192    	0.000000    	                	;
 NODE_1328510    	174.7423    	0.000417    	                	;
 NODE_1330055    	175.9734    	0.004167    	                	;
 NODE_1328829    	177.4801    	0.004583    	                	;
 NODE_1329969    	182.4279    	0.004167    	                	;
 NODE_1328508    	173.6888    	0.000833    	                	;
 NODE_1321543    	179.8161    	0.002083    	                	;
 NODE_1328843    	178.0121    	0.000000    	                	;
 NODE_1330860    	181.1590    	0.001250    	                	;
 NODE_1329976    	181.1683    	0.002500    	                	;
 NODE_1329978    	181.9405    	0.002917    	                	;
 NODE_1321546    	179.1962    	0.000000    	                	;
 NODE_1318564    	174.5856    	0.000000    	                	;
 NODE_1321551    	182.1666    	0.000417    	                	;
 NODE_1329057    	182.3064    	0.003333    	                	;
 NODE_1330768    	180.9082    	0.000833    	                	;
 NODE_1337053    	181.1028    	0.000000    	                	;
 NODE_1337059    	182.4949    	0.007462    	                	;
 NODE_1331185    	174.7001    	0.000000    	                	;
 NODE_1329475    	182.0373    	0.000000    	                	;
 NODE_1329481    	180.9713    	0.001667    	                	;
 NODE_1329395    	181.9973    	0.002500    	                	;
 NODE_1329488    	181.3331    	0.003750    	                	;
 NODE_1329489    	181.6459    	0.000517    	                	;
 NODE_1329401    	175.1943    	0.000000    	                	;
 NODE_1322993    	181.7802    	0.004583    	                	;
 NODE_1322106    	182.4374    	0.002500    	                	;
 NODE_1329495    	183.0045    	0.000000    	                	;
 NODE_1329498    	181.1498    	0.000000    	                	;
 NODE_1329819    	174.7562    	0.000000    	                	;
 NODE_1329503    	183.9154    	0.008750    	                	;
 NODE_1329506    	183.9333    	0.000000    	                	;
 NODE_1329510    	182.9251    	0.000000    	                	;
 NODE_1337303    	196.8085    	0.005000    	                	;
 NODE_1339727    	194.9660    	0.004167    	                	;
 NODE_1339728    	195.0443    	0.000000    	                	;
 NODE_1320974    	195.1753    	0.001250    	                	;
 NODE_1320976    	196.1867    	0.001250    	                	;
 NODE_1339738    	194.9460    	0.001704    	                	;
 NODE_1339739    	195.4992    	0.003333    	                	;
 NODE_1339742    	195.0609    	0.002917    	                	;
 NODE_1339744    	195.8200    	0.005000    	                	;
 NODE_1339746    	197.1358    	0.031483    	                	;
 NODE_1339748    	196.5686    	0.017500    	                	;
 NODE_1320985    	193.4211    	0.001458    	                	;
 NODE_1340299    	193.3478    	0.005000    	                	;
 NODE_1340309    	189.9210    	0.004167    	                	;
 NODE_1320667    	193.4323    	0.004167    	                	;
 NODE_1321564    	176.4575    	0.009583    	                	;
 NODE_1341810    	176.0613    	0.010833    	                	;
 NODE_1322737    	180.7521    	0.014958    	                	;
 NODE_1322133    	175.3435    	0.002500    	                	;
 NODE_1342332    	175.2664    	0.000000    	                	;
 NODE_1342335    	175.7879    	0.001667    	                	;
 NODE_1342336    	175.9636    	0.001667    	                	;
 NODE_1321152    	180.8741    	0.001250    	                	;
 NODE_1338284    	179.6158    	0.001250    	                	;
 NODE_1341799    	179.3863    	0.006250    	                	;
 NODE_1340391    	184.1701    	0.002500    	                	;
 NODE_1336628    	183.0015    	0.005417    	                	;
 NODE_1340711    	183.8063    	0.002083    	                	;
 NODE_1340723    	185.2828    	0.005529    	                	;
 NODE_1340406    	193.7231    	0.002542    	                	;
 NODE_1340407    	182.9652    	0.006667    	                	;
 NODE_1321485    	182.4083    	0.001667    	                	;
 NODE_1341553    	182.6722    	0.000833    	                	;
 NODE_1341561    	192.6543    	0.007083    	                	;
 NODE_1339424    	186.9391    	0.002083    	                	;
 NODE_1339426    	186.6744    	0.004167    	                	;
 NODE_1341573    	195.0281    	0.004167    	                	;
 NODE_1341582    	186.2735    	0.007054    	                	;
 NODE_1339429    	185.5304    	0.000833    	                	;
 NODE_1319947    	185.6078    	0.004583    	                	;
 NODE_1321737    	185.5334    	0.005417    	                	;
 NODE_1319046    	189.5415    	0.002917    	                	;
 NODE_1322059    	189.7647    	0.005833    	                	;
 NODE_1342100    	190.0920    	0.001250    	                	;
 NODE_1337744    	185.3420    	0.001250    	                	;
 NODE_1321731    	193.6376    	0.002917    	                	;
 NODE_1342109    	193.0650    	0.004167    	                	;
 NODE_1322064    	193.0411    	0.002500    	                	;
 NODE_1342116    	182.2803    	0.000417    	                	;
 NODE_1339953    	184.9247    	0.005417    	                	;
 NODE_1339955    	185.0107    	0.004583    	                	;
 NODE_1320509    	184.1255    	0.010833    	                	;
 NODE_1337747    	183.4978    	0.006667    	                	;
 NODE_1339973    	182.4092    	0.004583    	                	;
 NODE_1339974    	182.7353    	0.000000    	                	;
 NODE_1340233    	183.4124    	0.006250    	                	;
 NODE_1342124    	178.1900    	0.004583    	                	;
 NODE_1342129    	180.6559    	0.001250    	                	;
 NODE_1322072    	180.2705    	0.000833    	                	;
 NODE_1320516    	183.3092    	0.002500    	                	;
 NODE_1340186    	181.8202    	0.002917    	                	;
 NODE_1340417    	186.8891    	0.007083    	                	;
 NODE_1320722    	187.9848    	0.005417    	                	;
 NODE_1342834    	181.5517    	0.000000    	                	;
 NODE_1342837    	181.0485    	0.003750    	                	;
 NODE_1342840    	181.1303    	0.003333    	                	;
 NODE_1323104    	180.9037    	0.005000    	                	;
 NODE_1321277    	184.9548    	0.000000    	                	;
 NODE_1340703    	184.8774    	0.003333    	                	;
 NODE_1342846    	181.7264    	0.005017    	                	;
 NODE_1342848    	181.7205    	0.001250    	                	;
 NODE_1336632    	180.0105    	0.001250    	                	;
 NODE_1342852    	179.9501    	0.002500    	                	;
 NODE_1323110    	179.8572    	0.002083    	                	;
 NODE_1323111    	179.8664    	0.005833    	                	;
 NODE_1342865    	181.4636    	0.000000    	                	;
 NODE_1339396    	180.8506    	0.006550    	                	;
 NODE_1320396    	188.8374    	0.002083    	                	;
 NODE_1341067    	191.2401    	0.001250    	                	;
 NODE_1341072    	181.4357    	0.002500    	                	;
 NODE_1341074    	181.1327    	0.005000    	                	;
 NODE_1321483    	184.9270    	0.000833    	                	;
 NODE_1339409    	186.0091    	0.003750    	                	;
 NODE_1319440    	186.1722    	0.001250    	                	;
 NODE_1339420    	185.9359    	0.002083    	                	;
 NODE_1321792    	193.9115    	0.004167    	                	;
 NODE_1337962    	180.3161    	0.002083    	                	;
 NODE_1341411    	196.1230    	0.000000    	                	;
 NODE_1322359    	186.3337    	0.002083    	                	;
 NODE_1321607    	196.1553    	0.004167    	                	;
 NODE_1340898    	181.7362    	0.000000    	                	;
 NODE_1340897    	195.3328    	0.001250    	                	;
 NODE_1321606    	194.2325    	0.002917    	                	;
 NODE_1340709    	181.0005    	0.019412    	                	;
 NODE_1319308    	193.8628    	0.000625    	                	;
 NODE_1328059    	193.5185    	0.004583    	                	;
 NODE_1329760    	184.8227    	0.001562    	                	;
 NODE_1338658    	182.7670    	0.007187    	                	;
 NODE_1335773    	180.1491    	0.003750    	                	;
 NODE_1335775    	184.5572    	0.002500    	                	;
 NODE_1335781    	178.8860    	0.000000    	                	;
 NODE_1315619    	181.1754    	0.001042    	                	;
 NODE_1323480    	181.3552    	0.004167    	                	;
 NODE_1323483    	181.1766    	0.005000    	                	;
 NODE_1323490    	182.8176    	0.003333    	                	;
 NODE_1337611    	181.7731    	0.009583    	                	;
 NODE_1334323    	182.5801    	0.004583    	                	;
 NODE_6267730    	184.5799    	0.000000    	                	;
 NODE_1334512    	184.6136    	0.000833    	                	;
 NODE_1317230    	183.7869    	0.002917    	                	;
 NODE_1317231    	184.8959    	0.004583    	                	;
 NODE_1334536    	183.6718    	0.004167    	                	;
 NODE_1317641    	182.8375    	0.001667    	                	;