[TITLE]
Converted from Epanet to Staci, case name: meszlen.spr


[JUNCTIONS]
;ID              	Elev        	Demand      	Pattern         
 NODE_4731204    	230.0084    	0.000417    	                	;
 NODE_4731172    	232.1833    	0.002500    	                	;
 NODE_4731217    	223.1459    	0.003333    	                	;
 NODE_4731208    	225.2189    	0.002083    	                	;
 NODE_4731135    	229.8370    	0.003333    	                	;
 NODE_4731131    	223.8808    	0.000000    	                	;
 NODE_4731213    	224.5210    	0.002500    	                	;
 NODE_4731240    	231.8499    	0.000417    	                	;
 NODE_4731237    	224.0740    	0.000833    	                	;
 NODE_4731156    	231.3881    	0.000833    	                	;
 NODE_4731251    	224.2427    	0.000000    	                	;
 NODE_4731232    	224.0657    	0.000000    	                	;
 NODE_4731244    	231.3962    	0.010000    	                	;
 NODE_4731124    	224.2588    	0.001667    	                	;
 NODE_4731206    	228.9470    	0.001667    	                	;
 NODE_4731130    	224.1116    	0.000000    	                	;
 NODE_4731231    	223.6890    	0.000000    	                	;
 NODE_4731145    	230.2388    	0.001667    	                	;
 NODE_4731159    	231.1971    	0.000000    	                	;
 NODE_4731160    	231.8450    	0.001250    	                	;
 NODE_4731250    	223.9571    	0.002500    	                	;
 NODE_4731175    	230.7178    	0.000833    	                	;
 NODE_4731147    	230.7827    	0.000000    	                	;
 NODE_4731125    	224.1869    	0.002917    	                	;
 NODE_4731189    	230.5855    	0.001250    	                	;
 NODE_4731212    	224.0715    	0.002917    	                	;
 NODE_4731173    	232.2456    	0.000000    	                	;
 NODE_4731181    	231.5545    	0.000000    	                	;
 NODE_4731193    	230.2480    	0.000000    	                	;
 NODE_4731158    	230.5652    	0.001250    	                	;
 NODE_4731157    	230.7714    	0.000417    	                	;
 NODE_4731139    	230.2595    	0.001250    	                	;
 NODE_4731134    	229.8099    	0.000000    	                	;
 NODE_4731192    	230.2379    	0.001250    	                	;
 NODE_4731245    	230.4748    	0.000833    	                	;
 NODE_4731161    	232.0022    	0.000417    	                	;
 NODE_4731191    	230.2640    	0.000833    	                	;
 NODE_4731171    	231.9586    	0.000833    	                	;
 NODE_4731247    	230.2994    	0.000417    	                	;
 NODE_4731137    	229.8846    	0.008333    	                	;
 NODE_4731123    	223.4501    	0.000000    	                	;
 NODE_4731154    	231.2398    	0.003333    	                	;
 NODE_4731151    	232.1260    	0.003750    	                	;
 NODE_4731224    	231.3589    	0.000000    	                	;
 NODE_4731129    	224.1267    	0.000000    	                	;
 NODE_4731165    	231.8417    	0.004583    	                	;
 NODE_4731199    	229.9719    	0.001667    	                	;
 NODE_4731153    	230.9398    	0.003333    	                	;
 NODE_4731143    	230.2724    	0.000000    	                	;
 NODE_4731169    	231.9321    	0.002500    	                	;
 NODE_4731239    	229.9561    	0.001667    	                	;
 NODE_4731150    	231.2343    	0.000833    	                	;
 NODE_4731228    	229.9799    	0.000000    	                	;
 NODE_4731209    	227.3935    	0.000833    	                	;
 NODE_4731234    	229.0153    	0.000000    	                	;
 NODE_4731196    	230.0480    	0.000000    	                	;
 NODE_4731141    	230.5601    	0.000000    	                	;
 NODE_4731215    	224.1652    	0.000417    	                	;
 NODE_4731186    	231.3971    	0.004167    	                	;
 NODE_4731185    	231.3918    	0.002083    	                	;
 NODE_4731144    	230.2315    	0.000833    	                	;
 NODE_4731260    	223.9117    	0.000000    	                	;
 NODE_4731214    	224.1209    	0.000000    	                	;
 NODE_4731227    	229.9216    	0.000000    	                	;
 NODE_4731126    	222.6877    	0.001250    	                	;
 NODE_4731238    	229.8260    	0.000000    	                	;
 NODE_4731166    	231.8692    	0.000833    	                	;
 NODE_4731163    	232.3249    	0.001667    	                	;
 NODE_4731188    	230.8759    	0.003750    	                	;
 NODE_4731207    	225.6101    	0.000000    	                	;
 NODE_4731225    	230.3614    	0.000000    	                	;
 NODE_4731197    	230.2831    	0.000000    	                	;
 NODE_4731128    	224.1815    	0.000833    	                	;
 NODE_4731198    	229.9662    	0.000000    	                	;
 NODE_4731152    	232.2937    	0.001250    	                	;
 NODE_4731148    	231.2284    	0.000417    	                	;
 NODE_4731229    	227.1034    	0.000000    	                	;
 NODE_4731211    	224.0019    	0.004167    	                	;
 NODE_4731210    	224.0358    	0.004583    	                	;
 NODE_4731184    	231.3393    	0.000417    	                	;
 NODE_4731180    	231.9070    	0.003750    	                	;
 NODE_4731178    	231.3247    	0.002500    	                	;
 NODE_4731195    	230.5317    	0.000833    	                	;
 NODE_4731248    	229.9604    	0.034583    	                	;
 NODE_4731176    	230.7844    	0.007917    	                	;
 NODE_4731218    	223.7646    	0.000000    	                	;
 NODE_4731167    	231.8701    	0.002917    	                	;
 NODE_4731127    	223.7447    	0.000000    	                	;
 NODE_4731162    	232.2818    	0.000000    	                	;
 NODE_4731200    	229.9343    	0.002917    	                	;
 NODE_4731132    	224.7661    	0.005417    	                	;
 NODE_4731236    	227.9832    	0.001667    	                	;
 NODE_4731164    	231.8491    	0.000417    	                	;
 NODE_4731138    	229.9914    	0.001250    	                	;
 NODE_4731194    	230.4306    	0.000417    	                	;
 NODE_4731253    	226.6565    	0.000000    	                	;
 NODE_4731249    	229.6279    	0.002917    	                	;
 NODE_4731246    	230.2582    	0.001667    	                	;
 NODE_4731183    	230.7915    	0.001250    	                	;
 NODE_4731182    	231.2530    	0.000000    	                	;
 NODE_4731155    	231.2825    	0.007917    	                	;
 NODE_4731146    	230.4850    	0.002917    	                	;
 NODE_4731223    	232.1226    	0.000000    	                	;
 NODE_4731202    	229.8193    	0.000000    	                	;
 NODE_4731190    	230.3618    	0.002500    	                	;
 NODE_4731219    	221.7436    	0.000000    	                	;
 NODE_4731205    	228.3534    	0.000000    	                	;
 NODE_4731177    	231.1092    	0.004167    	                	;
 NODE_4731170    	232.1174    	0.000000    	                	;
 NODE_4731187    	231.1608    	0.000417    	                	;
 NODE_4731243    	231.2313    	0.000000    	                	;
 NODE_4731168    	232.2288    	0.007500    	                	;
 NODE_4731201    	228.7125    	0.000417    	                	;
 NODE_4731179    	232.3167    	0.004167    	                	;
 NODE_4731149    	230.9379    	0.000000    	                	;
 NODE_4731140    	230.2458    	0.004167    	                	;
 NODE_4731221    	231.8830    	0.000000    	                	;
 NODE_4731174    	231.8931    	0.000000    	                	;
 NODE_4731241    	231.0726    	0.002917    	                	;
 NODE_4731136    	229.9687    	0.002083    	                	;
 NODE_4731203    	229.8958    	0.004583    	                	;
 NODE_4731242    	231.3076    	0.002500    	                	;
 NODE_4731142    	230.3340    	0.000833    	                	;
 NODE_4731233    	230.2655    	0.001667    	                	;
 NODE_4731216    	224.0712    	0.000000    	                	;
 NODE_4731252    	224.3166    	0.000000    	                	;
 NODE_4556116    	231.3898    	0.000000    	                	;
 NODE_4556116_1  	231.3898    	0.000000    	                	;
 NODE_4556120    	231.3859    	0.000000    	                	;
 NODE_4556120_1  	231.3859    	0.000000    	                	;
 NODE_4731258    	230.3180    	0.000000    	                	;
 NODE_4556122    	230.3167    	0.000000    	                	;
 NODE_4556122_1  	230.3257    	0.000000    	                	;
 NODE_4556126    	230.3163    	0.000000    	                	;
 NODE_4556126_1  	230.3253    	0.000000    	                	;
 NODE_4731255    	231.3898    	0.000000    	                	;
 NODE_4556124    	230.3197    	0.000000    	                	;
 NODE_4556124_1  	230.3287    	0.000000    	                	;
 NODE_4726171    	228.5807    	0.000000    	                	;
 NODE_4556118    	231.3897    	0.000000    	                	;
 NODE_4556118_1  	231.3897    	0.000000    	                	;
 NODE_4556132    	224.3172    	0.000000    	                	;
 NODE_4556132_1  	224.3112    	0.000000    	                	;
 NODE_4556130    	224.3128    	0.000000    	                	;
 NODE_4556130_1  	224.3068    	0.000000    	                	;

[RESERVOIRS]
;ID              	Head        	Pattern         
 PRESS_4531415   	267.8395    	                

[TANKS]
;ID             	Elevation   	InitLevel   	MinLevel    	MaxLevel    	Diameter    	MinVol      	VolCurve
 POOL_4556134    	261.8000    	4.2000      	0.0000      	1000.0000   	5.8735      	0.0000      	                	

[PIPES]
;ID             	Node1           	Node2           	Length      	Diameter    	Roughness   	MinorLoss   	Status
 PIPE_4542745    	PRESS_4531415   	NODE_4726171    	1091.7563   	100.0000    	0.0200     	0.0000      	Open  ;
 PIPE_4896582    	NODE_4731125    	NODE_4731128    	16.8579     	100.0000    	0.0200     	0.0000      	Open  ;
 PIPE_4896583    	NODE_4731128    	NODE_4731124    	10.9568     	100.0000    	0.0200     	0.0000      	Open  ;
 PIPE_4896602    	NODE_4731260    	NODE_4731131    	7.7189      	100.0000    	0.0200     	0.0000      	Open  ;
 PIPE_4896632    	NODE_4731136    	NODE_4731135    	19.9620     	100.0000    	0.0200     	0.0000      	Open  ;
 PIPE_4896686    	NODE_4731143    	NODE_4731142    	14.9865     	100.0000    	0.0200     	0.0000      	Open  ;
 PIPE_4896693    	NODE_4731140    	NODE_4731144    	9.2066      	100.0000    	0.0200     	0.0000      	Open  ;
 PIPE_4896706    	NODE_4731146    	NODE_4731141    	13.7126     	100.0000    	0.0200     	0.0000      	Open  ;
 PIPE_4896749    	NODE_4731149    	NODE_4731153    	12.9825     	100.0000    	0.0200     	0.0000      	Open  ;
 PIPE_4896786    	NODE_4731150    	NODE_4731159    	7.4856      	100.0000    	0.0200     	0.0000      	Open  ;
 PIPE_4896803    	NODE_4731162    	NODE_4731152    	7.3265      	100.0000    	0.0200     	0.0000      	Open  ;
 PIPE_4896810    	NODE_4731152    	NODE_4731163    	9.5899      	100.0000    	0.0200     	0.0000      	Open  ;
 PIPE_4896821    	NODE_4731165    	NODE_4731160    	4.3226      	100.0000    	0.0200     	0.0000      	Open  ;
 PIPE_4896822    	NODE_4731164    	NODE_4731165    	10.0847     	100.0000    	0.0200     	0.0000      	Open  ;
 PIPE_4896827    	NODE_4731166    	NODE_4731164    	12.4077     	100.0000    	0.0200     	0.0000      	Open  ;
 PIPE_4896833    	NODE_4731167    	NODE_4731166    	0.4851      	100.0000    	0.0200     	0.0000      	Open  ;
 PIPE_4896852    	NODE_4731151    	NODE_4731170    	0.7009      	100.0000    	0.0200     	0.0000      	Open  ;
 PIPE_4896857    	NODE_4731171    	NODE_4731161    	8.0946      	100.0000    	0.0200     	0.0000      	Open  ;
 PIPE_4896858    	NODE_4731169    	NODE_4731171    	8.6992      	100.0000    	0.0200     	0.0000      	Open  ;
 PIPE_4896863    	NODE_4731172    	NODE_4731168    	6.5224      	100.0000    	0.0200     	0.0000      	Open  ;
 PIPE_4896864    	NODE_4731161    	NODE_4731172    	25.9081     	100.0000    	0.0200     	0.0000      	Open  ;
 PIPE_4896869    	NODE_4731173    	NODE_4731162    	10.4506     	100.0000    	0.0200     	0.0000      	Open  ;
 PIPE_4896870    	NODE_4731168    	NODE_4731173    	2.4112      	100.0000    	0.0200     	0.0000      	Open  ;
 PIPE_4896875    	NODE_4731174    	NODE_4731169    	7.6281      	100.0000    	0.0200     	0.0000      	Open  ;
 PIPE_4896881    	NODE_4731158    	NODE_4731175    	14.3987     	100.0000    	0.0200     	0.0000      	Open  ;
 PIPE_4896882    	NODE_4731175    	NODE_4731157    	15.4006     	100.0000    	0.0200     	0.0000      	Open  ;
 PIPE_4896887    	NODE_4731157    	NODE_4731176    	10.8479     	100.0000    	0.0200     	0.0000      	Open  ;
 PIPE_4896888    	NODE_4731176    	NODE_4731149    	8.8462      	100.0000    	0.0200     	0.0000      	Open  ;
 PIPE_4896899    	NODE_4731178    	NODE_4731150    	17.2204     	100.0000    	0.0200     	0.0000      	Open  ;
 PIPE_4896905    	NODE_4731179    	NODE_4731151    	15.4762     	100.0000    	0.0200     	0.0000      	Open  ;
 PIPE_4896906    	NODE_4731163    	NODE_4731179    	10.5260     	100.0000    	0.0200     	0.0000      	Open  ;
 PIPE_4896917    	NODE_4731181    	NODE_4731178    	6.2221      	100.0000    	0.0200     	0.0000      	Open  ;
 PIPE_4896918    	NODE_4731180    	NODE_4731181    	5.0791      	100.0000    	0.0200     	0.0000      	Open  ;
 PIPE_4896923    	NODE_4731182    	NODE_4731155    	12.8169     	100.0000    	0.0200     	0.0000      	Open  ;
 PIPE_4896924    	NODE_4731154    	NODE_4731182    	3.5950      	100.0000    	0.0200     	0.0000      	Open  ;
 PIPE_4896929    	NODE_4731147    	NODE_4731183    	21.4115     	100.0000    	0.0200     	0.0000      	Open  ;
 PIPE_4896935    	NODE_4731184    	NODE_4731156    	16.2413     	100.0000    	0.0200     	0.0000      	Open  ;
 PIPE_4896948    	NODE_4731186    	NODE_4731185    	9.5779      	100.0000    	0.0200     	0.0000      	Open  ;
 PIPE_4896954    	NODE_4731187    	NODE_4731148    	15.6848     	100.0000    	0.0200     	0.0000      	Open  ;
 PIPE_4896959    	NODE_4731183    	NODE_4731188    	14.3405     	100.0000    	0.0200     	0.0000      	Open  ;
 PIPE_4896960    	NODE_4731188    	NODE_4731187    	22.9473     	100.0000    	0.0200     	0.0000      	Open  ;
 PIPE_4896966    	NODE_4731189    	NODE_4731147    	29.0734     	100.0000    	0.0200     	0.0000      	Open  ;
 PIPE_4896989    	NODE_4731144    	NODE_4731192    	11.2700     	100.0000    	0.0200     	0.0000      	Open  ;
 PIPE_4896995    	NODE_4731191    	NODE_4731193    	12.8730     	100.0000    	0.0200     	0.0000      	Open  ;
 PIPE_4896996    	NODE_4731193    	NODE_4731140    	4.4576      	100.0000    	0.0200     	0.0000      	Open  ;
 PIPE_4897002    	NODE_4731194    	NODE_4731146    	13.2915     	100.0000    	0.0200     	0.0000      	Open  ;
 PIPE_4897007    	NODE_4731141    	NODE_4731195    	13.2508     	100.0000    	0.0200     	0.0000      	Open  ;
 PIPE_4897008    	NODE_4731195    	NODE_4731158    	15.7178     	100.0000    	0.0200     	0.0000      	Open  ;
 PIPE_4897013    	NODE_4731145    	NODE_4731196    	11.2300     	100.0000    	0.0200     	0.0000      	Open  ;
 PIPE_4897014    	NODE_4731196    	NODE_4731137    	13.5652     	100.0000    	0.0200     	0.0000      	Open  ;
 PIPE_4897027    	NODE_4731138    	NODE_4731198    	7.8821      	100.0000    	0.0200     	0.0000      	Open  ;
 PIPE_4897028    	NODE_4731198    	NODE_4731136    	11.6693     	100.0000    	0.0200     	0.0000      	Open  ;
 PIPE_4897039    	NODE_4731137    	NODE_4731200    	8.7460      	100.0000    	0.0200     	0.0000      	Open  ;
 PIPE_4897051    	NODE_4731135    	NODE_4731202    	3.2699      	100.0000    	0.0200     	0.0000      	Open  ;
 PIPE_4897052    	NODE_4731202    	NODE_4731134    	13.6051     	100.0000    	0.0200     	0.0000      	Open  ;
 PIPE_4897069    	NODE_4731201    	NODE_4731205    	20.2692     	100.0000    	0.0200     	0.0000      	Open  ;
 PIPE_4897076    	NODE_4731206    	NODE_4731201    	13.1297     	100.0000    	0.0200     	0.0000      	Open  ;
 PIPE_4897081    	NODE_4731253    	NODE_4731207    	53.5488     	100.0000    	0.0200     	0.0000      	Open  ;
 PIPE_4897087    	NODE_4731207    	NODE_4731208    	21.7739     	100.0000    	0.0200     	0.0000      	Open  ;
 PIPE_4897088    	NODE_4731208    	NODE_4731132    	35.2724     	100.0000    	0.0200     	0.0000      	Open  ;
 PIPE_4897106    	NODE_4731211    	NODE_4731210    	15.6216     	100.0000    	0.0200     	0.0000      	Open  ;
 PIPE_4897117    	NODE_4731132    	NODE_4731213    	19.3070     	100.0000    	0.0200     	0.0000      	Open  ;
 PIPE_4897118    	NODE_4731213    	NODE_4731252    	16.4150     	100.0000    	0.0200     	0.0000      	Open  ;
 PIPE_4897123    	NODE_4731130    	NODE_4731214    	18.5552     	100.0000    	0.0200     	0.0000      	Open  ;
 PIPE_4897124    	NODE_4731214    	NODE_4731129    	0.7280      	100.0000    	0.0200     	0.0000      	Open  ;
 PIPE_4897129    	NODE_4731129    	NODE_4731215    	4.7688      	100.0000    	0.0200     	0.0000      	Open  ;
 PIPE_4897130    	NODE_4731215    	NODE_4731125    	5.1291      	100.0000    	0.0200     	0.0000      	Open  ;
 PIPE_4897136    	NODE_4731216    	NODE_4731127    	26.6028     	100.0000    	0.0200     	0.0000      	Open  ;
 PIPE_4897141    	NODE_4731123    	NODE_4731217    	24.8817     	100.0000    	0.0200     	0.0000      	Open  ;
 PIPE_4897142    	NODE_4731217    	NODE_4731126    	39.9121     	100.0000    	0.0200     	0.0000      	Open  ;
 PIPE_4897148    	NODE_4731218    	NODE_4726171    	354.8259    	100.0000    	0.0200     	0.0000      	Open  ;
 PIPE_4897153    	NODE_4731126    	NODE_4731219    	162.0969    	100.0000    	0.0200     	0.0000      	Open  ;
 PIPE_4897154    	NODE_4731219    	NODE_4731218    	420.4348    	100.0000    	0.0200     	0.0000      	Open  ;
 PIPE_4897159    	NODE_4731221    	NODE_4731167    	7.8268      	100.0000    	0.0200     	0.0000      	Open  ;
 PIPE_4897160    	POOL_4556134    	NODE_4731221    	104.3471    	100.0000    	0.0200     	0.0000      	Open  ;
 PIPE_4897165    	NODE_4731223    	NODE_4731180    	9.6939      	100.0000    	0.0200     	0.0000      	Open  ;
 PIPE_4897166    	NODE_4731170    	NODE_4731223    	7.3828      	100.0000    	0.0200     	0.0000      	Open  ;
 PIPE_4897171    	NODE_4731148    	NODE_4731224    	12.1114     	100.0000    	0.0200     	0.0000      	Open  ;
 PIPE_4897177    	NODE_4731142    	NODE_4731225    	5.4063      	100.0000    	0.0200     	0.0000      	Open  ;
 PIPE_4897178    	NODE_4731225    	NODE_4731194    	12.7692     	100.0000    	0.0200     	0.0000      	Open  ;
 PIPE_4897183    	NODE_4731200    	NODE_4731227    	17.5439     	100.0000    	0.0200     	0.0000      	Open  ;
 PIPE_4897189    	NODE_4731203    	NODE_4731228    	19.4949     	100.0000    	0.0200     	0.0000      	Open  ;
 PIPE_4897190    	NODE_4731228    	NODE_4731204    	6.6068      	100.0000    	0.0200     	0.0000      	Open  ;
 PIPE_4897195    	NODE_4731209    	NODE_4731229    	14.9274     	100.0000    	0.0200     	0.0000      	Open  ;
 PIPE_4897196    	NODE_4731229    	NODE_4731253    	22.5695     	100.0000    	0.0200     	0.0000      	Open  ;
 PIPE_4897201    	NODE_4731127    	NODE_4731231    	5.0012      	100.0000    	0.0200     	0.0000      	Open  ;
 PIPE_4897202    	NODE_4731231    	NODE_4731123    	20.1935     	100.0000    	0.0200     	0.0000      	Open  ;
 PIPE_4897207    	NODE_4731210    	NODE_4731232    	12.4532     	100.0000    	0.0200     	0.0000      	Open  ;
 PIPE_4897208    	NODE_4731232    	NODE_4731212    	2.1058      	100.0000    	0.0200     	0.0000      	Open  ;
 PIPE_4897213    	NODE_4731197    	NODE_4731233    	3.4502      	100.0000    	0.0200     	0.0000      	Open  ;
 PIPE_4897214    	NODE_4731233    	NODE_4731191    	0.2962      	100.0000    	0.0200     	0.0000      	Open  ;
 PIPE_4897220    	NODE_4731234    	NODE_4731206    	3.5382      	100.0000    	0.0200     	0.0000      	Open  ;
 PIPE_4897225    	NODE_4731205    	NODE_4731236    	20.5376     	100.0000    	0.0200     	0.0000      	Open  ;
 PIPE_4897226    	NODE_4731236    	NODE_4731209    	30.8343     	100.0000    	0.0200     	0.0000      	Open  ;
 PIPE_4897231    	NODE_4731212    	NODE_4731237    	0.5478      	100.0000    	0.0200     	0.0000      	Open  ;
 PIPE_4897232    	NODE_4731237    	NODE_4731130    	8.0836      	100.0000    	0.0200     	0.0000      	Open  ;
 PIPE_4897237    	NODE_4731134    	NODE_4731238    	5.8176      	100.0000    	0.0200     	0.0000      	Open  ;
 PIPE_4897238    	NODE_4731238    	NODE_4731203    	15.0480     	100.0000    	0.0200     	0.0000      	Open  ;
 PIPE_4897243    	NODE_4731227    	NODE_4731239    	4.5716      	100.0000    	0.0200     	0.0000      	Open  ;
 PIPE_4897244    	NODE_4731239    	NODE_4731199    	12.6577     	100.0000    	0.0200     	0.0000      	Open  ;
 PIPE_4897249    	NODE_4731240    	NODE_4731174    	19.2402     	100.0000    	0.0200     	0.0000      	Open  ;
 PIPE_4897250    	NODE_4731160    	NODE_4731240    	6.3760      	100.0000    	0.0200     	0.0000      	Open  ;
 PIPE_4897255    	NODE_4731153    	NODE_4731241    	21.4366     	100.0000    	0.0200     	0.0000      	Open  ;
 PIPE_4897256    	NODE_4731241    	NODE_4731177    	15.6555     	100.0000    	0.0200     	0.0000      	Open  ;
 PIPE_4897261    	NODE_4731242    	NODE_4731184    	12.0107     	100.0000    	0.0200     	0.0000      	Open  ;
 PIPE_4897262    	NODE_4731155    	NODE_4731242    	13.9909     	100.0000    	0.0200     	0.0000      	Open  ;
 PIPE_4897267    	NODE_4731243    	NODE_4731154    	7.7397      	100.0000    	0.0200     	0.0000      	Open  ;
 PIPE_4897268    	NODE_4731159    	NODE_4731243    	16.0517     	100.0000    	0.0200     	0.0000      	Open  ;
 PIPE_4897273    	NODE_4731224    	NODE_4731244    	27.7854     	100.0000    	0.0200     	0.0000      	Open  ;
 PIPE_4897274    	NODE_4731244    	NODE_4731186    	18.2197     	100.0000    	0.0200     	0.0000      	Open  ;
 PIPE_4897279    	NODE_4731190    	NODE_4731245    	21.8672     	100.0000    	0.0200     	0.0000      	Open  ;
 PIPE_4897280    	NODE_4731245    	NODE_4731189    	17.6349     	100.0000    	0.0200     	0.0000      	Open  ;
 PIPE_4897285    	NODE_4731192    	NODE_4731246    	17.6500     	100.0000    	0.0200     	0.0000      	Open  ;
 PIPE_4897286    	NODE_4731246    	NODE_4731139    	0.5805      	100.0000    	0.0200     	0.0000      	Open  ;
 PIPE_4897291    	NODE_4731139    	NODE_4731247    	17.2765     	100.0000    	0.0200     	0.0000      	Open  ;
 PIPE_4897292    	NODE_4731247    	NODE_4731145    	11.5341     	100.0000    	0.0200     	0.0000      	Open  ;
 PIPE_4897297    	NODE_4731199    	NODE_4731248    	2.0769      	100.0000    	0.0200     	0.0000      	Open  ;
 PIPE_4897298    	NODE_4731248    	NODE_4731138    	26.2607     	100.0000    	0.0200     	0.0000      	Open  ;
 PIPE_4897303    	NODE_4731204    	NODE_4731249    	27.3892     	100.0000    	0.0200     	0.0000      	Open  ;
 PIPE_4897304    	NODE_4731249    	NODE_4731234    	36.9721     	100.0000    	0.0200     	0.0000      	Open  ;
 PIPE_4897309    	NODE_4731131    	NODE_4731250    	28.8753     	100.0000    	0.0200     	0.0000      	Open  ;
 PIPE_4897310    	NODE_4731250    	NODE_4731211    	13.4246     	100.0000    	0.0200     	0.0000      	Open  ;
 PIPE_4897315    	NODE_4731124    	NODE_4731251    	12.4666     	100.0000    	0.0200     	0.0000      	Open  ;
 PIPE_4898670    	NODE_4556116_1  	NODE_4731255    	0.3000      	100.0000    	0.0200     	0.0000      	Open  ;
 PIPE_4898671    	NODE_4731156    	NODE_4556116    	3.7269      	100.0000    	0.0200     	0.0000      	Open  ;
 PIPE_4898676    	NODE_4731185    	NODE_4556118_1  	2.5417      	100.0000    	0.0200     	0.0000      	Open  ;
 PIPE_4898677    	NODE_4556118    	NODE_4731255    	0.3000      	100.0000    	0.0200     	0.0000      	Open  ;
 PIPE_4898682    	NODE_4731177    	NODE_4556120_1  	36.6562     	100.0000    	0.0200     	0.0000      	Open  ;
 PIPE_4898683    	NODE_4556120    	NODE_4731255    	0.3000      	100.0000    	0.0200     	0.0000      	Open  ;
 PIPE_4898688    	NODE_4731258    	NODE_4556122_1  	0.3000      	100.0000    	0.0200     	0.0000      	Open  ;
 PIPE_4898689    	NODE_4556122    	NODE_4731143    	25.1614     	100.0000    	0.0200     	0.0000      	Open  ;
 PIPE_4898696    	NODE_4731258    	NODE_4556124_1  	0.3000      	100.0000    	0.0200     	0.0000      	Open  ;
 PIPE_4898697    	NODE_4556124    	NODE_4731190    	6.8197      	100.0000    	0.0200     	0.0000      	Open  ;
 PIPE_4898704    	NODE_4731258    	NODE_4556126_1  	0.3000      	100.0000    	0.0200     	0.0000      	Open  ;
 PIPE_4898705    	NODE_4556126    	NODE_4731197    	6.1305      	100.0000    	0.0200     	0.0000      	Open  ;
 PIPE_4898718    	NODE_4731252    	NODE_4556130_1  	0.3000      	100.0000    	0.0200     	0.0000      	Open  ;
 PIPE_4898719    	NODE_4556130    	NODE_4731216    	19.6563     	100.0000    	0.0200     	0.0000      	Open  ;
 PIPE_4898724    	NODE_4731251    	NODE_4556132_1  	30.4382     	100.0000    	0.0200     	0.0000      	Open  ;
 PIPE_4898725    	NODE_4556132    	NODE_4731252    	0.3000      	100.0000    	0.0200     	0.0000      	Open  ;

[PUMPS]
;ID             	Node1           	Node2           	Parameters

[VALVES]
;ID             	Node1           	Node2           	Diameter    	Type	Setting     	MinorLoss   
 VALVE_4556120   	NODE_4556120    	NODE_4556120_1  	100.0000    	ISO 	0.0000      	0.0000      
 VALVE_4556132   	NODE_4556132    	NODE_4556132_1  	100.0000    	ISO 	0.0000      	0.0000      
 VALVE_4556126   	NODE_4556126    	NODE_4556126_1  	100.0000    	ISO 	0.0000      	0.0000      
 VALVE_4556122   	NODE_4556122    	NODE_4556122_1  	100.0000    	ISO 	0.0000      	0.0000      
 VALVE_4556118   	NODE_4556118    	NODE_4556118_1  	100.0000    	ISO 	0.0000      	0.0000      
 VALVE_4556130   	NODE_4556130    	NODE_4556130_1  	100.0000    	ISO 	0.0000      	0.0000      
 VALVE_4556124   	NODE_4556124    	NODE_4556124_1  	100.0000    	ISO 	0.0000      	0.0000      
 VALVE_4556116   	NODE_4556116    	NODE_4556116_1  	100.0000    	ISO 	0.0000      	0.0000      

[TAGS]

[DEMANDS]
;Junction       	Demand      	Pattern         	Category

[STATUS]
;ID              	Status/Setting

[PATTERNS]
;ID             	Multipliers

[CURVES]
;ID             	X-Value     	Y-Value

[CONTROLS]

[RULES]

[ENERGY]

[EMITTERS]

[QUALITY]

[SOURCES]

[REACTIONS]

[MIXING]

[TIMES]

[REPORT]

[OPTIONS]
 Units              	LPS
 Headloss           	C-F
 Specific Gravity   	1.0
 Viscosity          	1.0
 Trials             	40
 Accuracy           	0.001
 CHECKFREQ          	2
 MAXCHECK           	10
 DAMPLIMIT          	0
 Unbalanced         	Continue 10
 Pattern            	1
 Demand Multiplier  	1.0
 Emitter Exponent   	0.5
 Quality            	Chlorine mg/L
 Diffusivity        	1.0
 Tolerance          	0.01

[COORDINATES]
;Node           	X-Coord         	Y-Coord
 NODE_4731204    	223292.5326     	472699.3089     
 NODE_4731172    	223922.3390     	472611.5919     
 NODE_4731217    	223380.1709     	473116.0701     
 NODE_4731208    	223380.6673     	472949.3913     
 NODE_4731135    	223284.8400     	472647.5486     
 NODE_4731131    	223219.1804     	473085.4110     
 NODE_4731213    	223388.0536     	473003.4398     
 NODE_4731240    	223989.5894     	472625.9973     
 NODE_4731237    	223287.4811     	473059.5627     
 NODE_4731156    	223729.7600     	472578.2311     
 NODE_4731251    	223359.7406     	473031.4216     
 NODE_4731232    	223285.0100     	473060.5300     
 NODE_4731244    	223695.1703     	472576.0253     
 NODE_4731124    	223348.1090     	473035.9073     
 NODE_4731206    	223319.5775     	472761.5809     
 NODE_4731130    	223295.0093     	473056.6182     
 NODE_4731231    	223385.6731     	473071.3403     
 NODE_4731145    	223418.2206     	472621.1232     
 NODE_4731159    	223812.0396     	472582.1435     
 NODE_4731160    	223995.8297     	472624.6884     
 NODE_4731250    	223246.1908     	473075.2021     
 NODE_4731175    	223625.5599     	472613.6862     
 NODE_4731147    	223583.5299     	472580.8797     
 NODE_4731125    	223322.1882     	473045.9953     
 NODE_4731189    	223555.7307     	472589.3921     
 NODE_4731212    	223286.9709     	473059.7624     
 NODE_4731173    	223914.4529     	472607.3946     
 NODE_4731181    	223842.1398     	472584.3414     
 NODE_4731193    	223489.1995     	472609.2864     
 NODE_4731158    	223611.1702     	472614.1022     
 NODE_4731157    	223640.9303     	472613.0620     
 NODE_4731139    	223446.5196     	472615.7181     
 NODE_4731134    	223275.7874     	472655.9689     
 NODE_4731192    	223464.5305     	472612.9137     
 NODE_4731245    	223538.8686     	472594.5555     
 NODE_4731161    	223946.8785     	472619.7350     
 NODE_4731191    	223501.8802     	472607.1111     
 NODE_4731171    	223954.6203     	472622.0985     
 NODE_4731247    	223429.5499     	472618.9593     
 NODE_4731137    	223394.0304     	472626.2927     
 NODE_4731123    	223383.4385     	473091.4098     
 NODE_4731154    	223788.3899     	472579.6210     
 NODE_4731151    	223863.9102     	472591.2290     
 NODE_4731224    	223668.1900     	472569.6100     
 NODE_4731129    	223312.9694     	473049.5985     
 NODE_4731165    	224000.0602     	472623.8011     
 NODE_4731199    	223351.2097     	472633.8286     
 NODE_4731153    	223673.0102     	472606.9309     
 NODE_4731143    	223522.3001     	472620.9611     
 NODE_4731169    	223962.9405     	472624.6385     
 NODE_4731239    	223363.6404     	472631.4420     
 NODE_4731150    	223819.3998     	472580.9192     
 NODE_4731228    	223290.0740     	472693.1785     
 NODE_4731209    	223347.7501     	472841.5200     
 NODE_4731234    	223318.3314     	472758.2695     
 NODE_4731196    	223407.1900     	472623.2300     
 NODE_4731141    	223582.2802     	472616.2324     
 NODE_4731215    	223317.4110     	473047.8625     
 NODE_4731186    	223713.3501     	472577.2187     