[TITLE]
Converted from Epanet to Staci, case name: nagycenk2.spr


[JUNCTIONS]
;ID              	Elev        	Demand      	Pattern         
 NODE_1322644    	155.9736    	0.000000    	                	;
 NODE_1339107    	152.1959    	0.000000    	                	;
 NODE_1322642    	156.9344    	0.000000    	                	;
 NODE_1341413    	164.3701    	0.000000    	                	;
 NODE_1329594    	152.6258    	0.002917    	                	;
 NODE_1319357    	152.5439    	0.001667    	                	;
 NODE_1319358    	152.6349    	0.000417    	                	;
 NODE_1342530    	149.8299    	0.006667    	                	;
 NODE_1329471    	156.8683    	0.000000    	                	;
 NODE_1337091    	148.0217    	0.008333    	                	;
 NODE_1319678    	148.2977    	0.001250    	                	;
 NODE_1321331    	148.6585    	0.000000    	                	;
 NODE_1329751    	151.3916    	0.002917    	                	;
 NODE_1337254    	152.6689    	0.000833    	                	;
 NODE_1328813    	148.0384    	0.002500    	                	;
 NODE_1322611    	152.4135    	0.006667    	                	;
 NODE_1341942    	149.7868    	0.006250    	                	;
 NODE_1337769    	155.7370    	0.002500    	                	;
 NODE_1328419    	160.4728    	0.000000    	                	;
 NODE_1327393    	154.8323    	0.000000    	                	;
 NODE_1330865    	161.7252    	0.000000    	                	;
 NODE_1327090    	161.9305    	0.002500    	                	;
 NODE_1341436    	164.0437    	0.005000    	                	;
 NODE_1329086    	161.9187    	0.006250    	                	;
 NODE_1327858    	154.8995    	0.000000    	                	;
 NODE_1328441    	159.6999    	0.003750    	                	;
 NODE_1321806    	160.2646    	0.000000    	                	;
 NODE_1329094    	160.3220    	0.000000    	                	;
 NODE_1328442    	159.6902    	0.000000    	                	;
 NODE_1336830    	166.2972    	0.000000    	                	;
 NODE_1336916    	159.6166    	0.000000    	                	;
 NODE_1336912    	155.1356    	0.000000    	                	;
 NODE_1327832    	155.1650    	0.000000    	                	;
 NODE_1330014    	166.5217    	0.000833    	                	;
 NODE_1329541    	163.2460    	0.000000    	                	;
 NODE_1335963    	162.4206    	0.000000    	                	;
 NODE_1336120    	163.2410    	0.000000    	                	;
 NODE_1342679    	165.7561    	0.000000    	                	;
 NODE_1336630    	164.1932    	0.000000    	                	;
 NODE_1320492    	160.1549    	0.000000    	                	;
 NODE_1342020    	160.3273    	0.000000    	                	;
 NODE_1341934    	165.8707    	0.006250    	                	;
 NODE_1341938    	163.0496    	0.000000    	                	;
 NODE_1319736    	157.9902    	0.000000    	                	;
 NODE_1329311    	148.0774    	0.002917    	                	;
 NODE_1322721    	147.7959    	0.005833    	                	;
 NODE_1328895    	144.4655    	0.000000    	                	;
 NODE_1322992    	154.0041    	0.001250    	                	;
 NODE_1329745    	157.0606    	0.000417    	                	;
 NODE_1330009    	162.9076    	0.000000    	                	;
 NODE_1338469    	162.5723    	0.000000    	                	;
 NODE_1342136    	157.0300    	0.000000    	                	;
 NODE_1342554    	164.8409    	0.000000    	                	;
 NODE_1329270    	150.6415    	0.002917    	                	;
 NODE_1328804    	148.3690    	0.004167    	                	;
 NODE_1339124    	156.4627    	0.000000    	                	;
 NODE_1327829    	154.9583    	0.000000    	                	;
 NODE_5812752    	164.5419    	0.000000    	                	;
 NODE_1336899    	151.6709    	0.000417    	                	;
 NODE_1323141    	150.9475    	0.003750    	                	;
 NODE_1329616    	152.5663    	0.005000    	                	;
 NODE_1329905    	156.9069    	0.005417    	                	;
 NODE_1329576    	154.9816    	0.002500    	                	;
 NODE_1320712    	156.4203    	0.000000    	                	;
 NODE_1341439    	154.5552    	0.000000    	                	;
 NODE_1327098    	161.8948    	0.000000    	                	;
 NODE_1327099    	161.7887    	0.000000    	                	;
 NODE_1321808    	160.5293    	0.000000    	                	;
 NODE_1329102    	160.4072    	0.000000    	                	;
 NODE_1329570    	165.3428    	0.005417    	                	;
 NODE_1342639    	158.9275    	0.000000    	                	;
 NODE_1342662    	160.0641    	0.000000    	                	;
 NODE_1328887    	143.5089    	0.001250    	                	;
 NODE_1342022    	156.5686    	0.000000    	                	;
 NODE_1319359    	155.0183    	0.005417    	                	;
 NODE_1330385    	152.6638    	0.000833    	                	;
 NODE_1329275    	159.1433    	0.001667    	                	;
 NODE_1329600    	154.2624    	0.003333    	                	;
 NODE_1329909    	155.9768    	0.005833    	                	;
 NODE_1328798    	148.7202    	0.002500    	                	;
 NODE_1330397    	151.2213    	0.003333    	                	;
 NODE_1328435    	160.7464    	0.000000    	                	;
 NODE_1316389    	163.6486    	0.000000    	                	;
 NODE_1321809    	160.3610    	0.000000    	                	;
 NODE_1337645    	153.8427    	0.003333    	                	;
 NODE_1322093    	147.0553    	0.000833    	                	;
 NODE_1321572    	159.1152    	0.000000    	                	;
 NODE_1336849    	159.6168    	0.001667    	                	;
 NODE_1339627    	152.2011    	0.000000    	                	;
 NODE_1330930    	166.8019    	0.000000    	                	;
 NODE_1341442    	155.5858    	0.000000    	                	;
 NODE_1328788    	148.2633    	0.003333    	                	;
 NODE_1319499    	152.4627    	0.002500    	                	;
 NODE_1330417    	151.1899    	0.000000    	                	;
 NODE_1321328    	148.2793    	0.000000    	                	;
 NODE_1335504    	164.9785    	0.000000    	                	;
 NODE_1319467    	157.5821    	0.000000    	                	;
 NODE_1331599    	165.4837    	0.000000    	                	;
 NODE_1327302    	156.1756    	0.000000    	                	;
 NODE_1331608    	163.9143    	0.000000    	                	;
 NODE_1319744    	158.1617    	0.000000    	                	;
 NODE_1336737    	143.9475    	0.001667    	                	;
 NODE_1336847    	158.4082    	0.003333    	                	;
 NODE_1336124    	163.1336    	0.000000    	                	;
 NODE_1342005    	155.6759    	0.000000    	                	;
 NODE_1322363    	161.7227    	0.000000    	                	;
 NODE_1329414    	150.8186    	0.004167    	                	;
 NODE_1319361    	152.9892    	0.005417    	                	;
 NODE_1329610    	151.6304    	0.000000    	                	;
 NODE_1328805    	148.0630    	0.006250    	                	;
 NODE_1337236    	151.3522    	0.002500    	                	;
 NODE_1329083    	164.2548    	0.004167    	                	;
 NODE_1330034    	164.8038    	0.000000    	                	;
 NODE_1320075    	164.0239    	0.000000    	                	;
 NODE_1329569    	165.4173    	0.000000    	                	;
 NODE_1330500    	164.4888    	0.000000    	                	;
 NODE_1341931    	166.1219    	0.000000    	                	;
 NODE_1342651    	161.5858    	0.006667    	                	;
 NODE_1321307    	144.4307    	0.002917    	                	;
 NODE_1322940    	148.0113    	0.000000    	                	;
 NODE_1328802    	148.7033    	0.001250    	                	;
 NODE_1337317    	156.5828    	0.000000    	                	;
 NODE_1337338    	162.6369    	0.002917    	                	;
 NODE_1329572    	164.4078    	0.000000    	                	;
 NODE_1328900    	144.4734    	0.002083    	                	;
 NODE_1339534    	145.9885    	0.002500    	                	;
 NODE_5812943    	165.2437    	0.000000    	                	;
 NODE_1319360    	153.5306    	0.000417    	                	;
 NODE_1322585    	155.9968    	0.001667    	                	;
 NODE_1330395    	151.9753    	0.000417    	                	;
 NODE_1330400    	152.0565    	0.002917    	                	;
 NODE_1329258    	156.0867    	0.013750    	                	;
 NODE_1339114    	151.3201    	0.005000    	                	;
 NODE_1336850    	160.0283    	0.000000    	                	;
 NODE_1327920    	160.2824    	0.000000    	                	;
 NODE_1331117    	158.3018    	0.000833    	                	;
 NODE_1331087    	159.3007    	0.000000    	                	;
 NODE_1322935    	148.1434    	0.001250    	                	;
 NODE_1328885    	143.6026    	0.000417    	                	;
 NODE_1327398    	160.7199    	0.000000    	                	;
 NODE_1330067    	153.4274    	0.006250    	                	;
 NODE_1342025    	163.5663    	0.000000    	                	;
 NODE_1341921    	161.8614    	0.000000    	                	;
 NODE_1322645    	159.7222    	0.000000    	                	;
 NODE_1338338    	166.2731    	0.000000    	                	;
 NODE_1322383    	145.7835    	0.000000    	                	;
 NODE_1322370    	163.1060    	0.000000    	                	;
 NODE_1337560    	149.4817    	0.006250    	                	;
 NODE_1331101    	154.2203    	0.000000    	                	;
 NODE_1327831    	154.9170    	0.000000    	                	;
 NODE_1342006    	154.8947    	0.000000    	                	;
 NODE_1331590    	163.1271    	0.000000    	                	;
 NODE_1328444    	160.0835    	0.000000    	                	;
 NODE_1321469    	144.5978    	0.001667    	                	;
 NODE_1329254    	155.3226    	0.002083    	                	;
 NODE_1327846    	154.9902    	0.000000    	                	;
 NODE_1327860    	154.1158    	0.000000    	                	;
 NODE_1329910    	156.0341    	0.000000    	                	;
 NODE_1331569    	148.2109    	0.005833    	                	;
 NODE_1342563    	161.0478    	0.000000    	                	;
 NODE_1321575    	166.1985    	0.000000    	                	;
 NODE_1335566    	154.8634    	0.003750    	                	;
 NODE_1342664    	160.0445    	0.000000    	                	;
 NODE_1321571    	155.9801    	0.000000    	                	;
 NODE_1329596    	152.4973    	0.007083    	                	;
 NODE_1320717    	160.7215    	0.002500    	                	;
 NODE_1331573    	143.9479    	0.002917    	                	;
 NODE_1342539    	158.9632    	0.000833    	                	;
 NODE_1330386    	153.0359    	0.002083    	                	;
 NODE_1327096    	162.0885    	0.005417    	                	;
 NODE_1336180    	159.6167    	0.000000    	                	;
 NODE_1329261    	153.3063    	0.007083    	                	;
 NODE_1342663    	160.6596    	0.000000    	                	;
 NODE_1328406    	155.4271    	0.000000    	                	;
 NODE_1319745    	158.6524    	0.000000    	                	;
 NODE_1329313    	147.6985    	0.000000    	                	;
 NODE_1321559    	155.7916    	0.003750    	                	;
 NODE_1329105    	166.3039    	0.000000    	                	;
 NODE_1329251    	155.9262    	0.001667    	                	;
 NODE_1327856    	157.0159    	0.015833    	                	;
 NODE_1321881    	155.4347    	0.001667    	                	;
 NODE_1327077    	157.1070    	0.000000    	                	;
 NODE_1336848    	159.8274    	0.000000    	                	;
 NODE_1329111    	155.5885    	0.000000    	                	;
 NODE_1319190    	155.9756    	0.000000    	                	;
 NODE_1339031    	144.8729    	0.005000    	                	;
 NODE_1339530    	144.2620    	0.000000    	                	;
 NODE_1341945    	149.5155    	0.000000    	                	;
 NODE_1338724    	157.8766    	0.000000    	                	;
 NODE_1341314    	155.0664    	0.000000    	                	;
 NODE_1329273    	147.6715    	0.000417    	                	;
 NODE_1337242    	151.1033    	0.003750    	                	;
 NODE_1328820    	148.3830    	0.002500    	                	;
 NODE_1337257    	148.2160    	0.002917    	                	;
 NODE_1341943    	150.0688    	0.009167    	                	;
 NODE_1336903    	152.3883    	0.001667    	                	;
 NODE_1321798    	162.0599    	0.000000    	                	;
 NODE_1321801    	162.9702    	0.000000    	                	;
 NODE_1341421    	162.5909    	0.000000    	                	;
 NODE_1320716    	160.7627    	0.000000    	                	;
 NODE_1329091    	160.4354    	0.000000    	                	;
 NODE_1320851    	159.6820    	0.000000    	                	;
 NODE_1321807    	160.3312    	0.000000    	                	;
 NODE_1329097    	160.2032    	0.000000    	                	;
 NODE_1319476    	155.8814    	0.000000    	                	;
 NODE_1328607    	159.9902    	0.000000    	                	;
 NODE_1320072    	166.2984    	0.000000    	                	;
 NODE_1329101    	160.2891    	0.000000    	                	;
 NODE_1327102    	160.4298    	0.000000    	                	;
 NODE_1327834    	155.3001    	0.000000    	                	;
 NODE_1328921    	158.1903    	0.000417    	                	;
 NODE_1328418    	160.4613    	0.000000    	                	;
 NODE_1329542    	163.1256    	0.000000    	                	;
 NODE_1322954    	162.7274    	0.000000    	                	;
 NODE_1330015    	164.9977    	0.000000    	                	;
 NODE_1342684    	165.0137    	0.000000    	                	;
 NODE_1342010    	156.4651    	0.000000    	                	;
 NODE_1331597    	166.1216    	0.000000    	                	;
 NODE_1341939    	163.1154    	0.000000    	                	;
 NODE_1342133    	163.2750    	0.000000    	                	;
 NODE_1342140    	157.4497    	0.000000    	                	;
 NODE_1342151    	159.7017    	0.000000    	                	;
 NODE_1321476    	146.0462    	0.004167    	                	;
 NODE_1327938    	148.4070    	0.000417    	                	;
 NODE_1328874    	143.5206    	0.002500    	                	;
 NODE_1329324    	146.9987    	0.008750    	                	;
 NODE_1328891    	144.4838    	0.000417    	                	;
 NODE_1328897    	144.4917    	0.000417    	                	;
 NODE_1329274    	147.1674    	0.003333    	                	;
 NODE_1337648    	156.3331    	0.002500    	                	;
 NODE_1337233    	152.6834    	0.000417    	                	;
 NODE_1339111    	155.2505    	0.003750    	                	;
 NODE_1319491    	148.6252    	0.000000    	                	;
 NODE_1330509    	161.0513    	0.000000    	                	;
 NODE_1327296    	156.8331    	0.000000    	                	;
 NODE_1328413    	156.9718    	0.000000    	                	;
 NODE_1341929    	165.9187    	0.000000    	                	;
 NODE_1329320    	147.6120    	0.002083    	                	;
 NODE_1322607    	152.8174    	0.007083    	                	;
 NODE_1327857    	155.1284    	0.000000    	                	;
 NODE_1336838    	166.3218    	0.000000    	                	;
 NODE_1329321    	147.5392    	0.000000    	                	;
 NODE_1331575    	155.8650    	0.002500    	                	;
 NODE_1330399    	151.7075    	0.001250    	                	;
 NODE_1330409    	152.7239    	0.003333    	                	;
 NODE_1330420    	154.2640    	0.001250    	                	;
 NODE_1337772    	165.4737    	0.000000    	                	;
 NODE_1338342    	166.2729    	0.003333    	                	;
 NODE_1320071    	164.7193    	0.000000    	                	;
 NODE_1323007    	159.6880    	0.010417    	                	;
 NODE_1330185    	166.1521    	0.000000    	                	;
 NODE_1342676    	162.3256    	0.000000    	                	;
 NODE_1338547    	164.9579    	0.000000    	                	;
 NODE_1342146    	158.0242    	0.000000    	                	;
 NODE_1329743    	150.3746    	0.003333    	                	;
 NODE_1322095    	157.4987    	0.002917    	                	;
 NODE_1337530    	154.2528    	0.009167    	                	;
 NODE_1341429    	164.9933    	0.000000    	                	;
 NODE_1329268    	151.5261    	0.000833    	                	;
 NODE_1331605    	166.3159    	0.000000    	                	;
 NODE_1328878    	144.4087    	0.005000    	                	;
 NODE_1322941    	147.0320    	0.000000    	                	;
 NODE_1342004    	152.9805    	0.000000    	                	;
 NODE_1331047    	155.5085    	0.002917    	                	;
 NODE_1322587    	152.0040    	0.004583    	                	;
 NODE_1316386    	156.5919    	0.006667    	                	;
 NODE_1329554    	164.5558    	0.000000    	                	;
 NODE_1327929    	165.1401    	0.000000    	                	;
 NODE_1327833    	155.2557    	0.002083    	                	;
 NODE_1337977    	163.0667    	0.000000    	                	;
 NODE_1342666    	160.8298    	0.000000    	                	;
 NODE_1342673    	160.9004    	0.000000    	                	;
 NODE_1342134    	163.8281    	0.000000    	                	;
 NODE_1342653    	157.0782    	0.000000    	                	;
 NODE_1342665    	159.9186    	0.000000    	                	;
 NODE_1341446    	159.4929    	0.000000    	                	;
 NODE_1328894    	144.4500    	0.002083    	                	;
 NODE_1322371    	163.0554    	0.000000    	                	;
 NODE_1330070    	159.2879    	0.000833    	                	;
 NODE_1331048    	150.8719    	0.001667    	                	;
 NODE_1337773    	166.0595    	0.003333    	                	;
 NODE_1328929    	163.2595    	0.000000    	                	;
 NODE_1331034    	159.6993    	0.000000    	                	;
 NODE_1338722    	163.1354    	0.000000    	                	;
 NODE_1329419    	152.5107    	0.001667    	                	;
 NODE_1329606    	152.7936    	0.002083    	                	;
 NODE_1329708    	159.0735    	0.003750    	                	;
 NODE_1329240    	155.3964    	0.000833    	                	;
 NODE_1339619    	148.6631    	0.007083    	                	;
 NODE_1328429    	160.7727    	0.000000    	                	;
 NODE_1327091    	161.9025    	0.000000    	                	;
 NODE_1327918    	161.0094    	0.000000    	                	;
 NODE_1319468    	158.2669    	0.000000    	                	;
 NODE_1327861    	153.9691    	0.003750    	                	;
 NODE_1327867    	163.5803    	0.000000    	                	;
 NODE_1329104    	159.3002    	0.000000    	                	;
 NODE_1342141    	157.6896    	0.000000    	                	;
 NODE_1339522    	143.9706    	0.001250    	                	;
 NODE_1322372    	164.5439    	0.000000    	                	;
 NODE_1329713    	154.0829    	0.001250    	                	;
 NODE_1336897    	148.5584    	0.000000    	                	;
 NODE_1327852    	155.7405    	0.000000    	                	;
 NODE_1322150    	158.7106    	0.000000    	                	;
 NODE_1341926    	166.5586    	0.000000    	                	;
 NODE_1322153    	161.7182    	0.000000    	                	;
 NODE_1329753    	151.3447    	0.003333    	                	;
 NODE_1329598    	154.1273    	0.002500    	                	;
 NODE_1322143    	158.9341    	0.002917    	                	;
 NODE_1322616    	152.1102    	0.000833    	                	;
 NODE_1320150    	155.2579    	0.005417    	                	;
 NODE_1321799    	163.3362    	0.000000    	                	;
 NODE_1327924    	166.5320    	0.000000    	                	;
 NODE_1330038    	164.7821    	0.000000    	                	;
 NODE_1327396    	164.0571    	0.000000    	                	;
 NODE_1329096    	160.2322    	0.002917    	                	;
 NODE_1320924    	159.0664    	0.001667    	                	;
 NODE_1330046    	164.8903    	0.000000    	                	;
 NODE_1315887    	154.8909    	0.000000    	                	;
 NODE_1337332    	160.2928    	0.000000    	                	;
 NODE_1328409    	156.2997    	0.000000    	                	;
 NODE_1341305    	165.9046    	0.000000    	                	;
 NODE_1342149    	157.2273    	0.000000    	                	;
 NODE_1339527    	147.3747    	0.000000    	                	;
 NODE_1328884    	143.5046    	0.000000    	                	;
 NODE_1329903    	157.5346    	0.004167    	                	;
 NODE_1322934    	147.3627    	0.004167    	                	;
 NODE_1337404    	143.9620    	0.002083    	                	;
 NODE_1327092    	161.7048    	0.000000    	                	;
 NODE_1342023    	154.5713    	0.000000    	                	;
 NODE_1342562    	160.8478    	0.000000    	                	;
 NODE_5815383    	150.0295    	0.000000    	                	;
 NODE_1322142    	150.7247    	0.000000    	                	;
 NODE_1322615    	152.6757    	0.000417    	                	;
 NODE_1328920    	158.2177    	0.000000    	                	;
 NODE_1342670    	160.5981    	0.000000    	                	;
 NODE_1329259    	153.7735    	0.000833    	                	;
 NODE_1342002    	163.8949    	0.000000    	                	;
 NODE_1329707    	159.6212    	0.005000    	                	;
 NODE_1321339    	148.5420    	0.002500    	                	;
 NODE_1320641    	159.9985    	0.002500    	                	;
 NODE_1331571    	152.7800    	0.010833    	                	;
 NODE_1331188    	165.2937    	0.000000    	                	;
 NODE_1327082    	158.4486    	0.003750    	                	;
 NODE_1331595    	158.2890    	0.000000    	                	;
 NODE_1339852    	152.1180    	0.000000    	                	;
 NODE_1339524    	146.0622    	0.000000    	                	;
 NODE_1342551    	166.1728    	0.000000    	                	;
 NODE_1342549    	166.3243    	0.000000    	                	;
 NODE_1329908    	155.9281    	0.001667    	                	;
 NODE_1322990    	148.7193    	0.007917    	                	;
 NODE_1320067    	166.1504    	0.000000    	                	;
 NODE_1342566    	161.8257    	0.000000    	                	;
 NODE_1342645    	160.2709    	0.000000    	                	;
 NODE_1342661    	159.7040    	0.000000    	                	;
 NODE_1329314    	147.5453    	0.005417    	                	;
 NODE_1341424    	162.9185    	0.000000    	                	;
 NODE_1337978    	162.2993    	0.000000    	                	;
 NODE_1328810    	148.4043    	0.001667    	                	;
 NODE_1330030    	166.1586    	0.000000    	                	;
 NODE_1320708    	156.6183    	0.000000    	                	;
 NODE_1327866    	163.6999    	0.000000    	                	;
 NODE_1322643    	151.2912    	0.000000    	                	;
 NODE_1337522    	162.2448    	0.000000    	                	;
 NODE_1328611    	159.7437    	0.007083    	                	;
 NODE_1328924    	160.0050    	0.024583    	                	;
 NODE_1330032    	165.0600    	0.000000    	                	;
 NODE_1327104    	159.8390    	0.000833    	                	;
 NODE_1341311    	163.2497    	0.000000    	                	;
 NODE_1320279    	144.4418    	0.000000    	                	;
 NODE_1321579    	165.6752    	0.000000    	                	;
 NODE_1341415    	162.5111    	0.000000    	                	;
 NODE_1342658    	157.4851    	0.000000    	                	;
 NODE_1321470    	144.4602    	0.000000    	                	;
 NODE_1337243    	148.5771    	0.010000    	                	;
 NODE_1322606    	153.0776    	0.000000    	                	;
 NODE_1336118    	162.2765    	0.000000    	                	;
 NODE_1319742    	157.5680    	0.000000    	                	;
 NODE_1329315    	147.3383    	0.000000    	                	;
 NODE_1328817    	148.3223    	0.004167    	                	;
 NODE_1328886    	143.8524    	0.007083    	                	;
 NODE_1321882    	153.3404    	0.004583    	                	;
 NODE_1329077    	162.9102    	0.000000    	                	;
 NODE_1321802    	164.7313    	0.000000    	                	;
 NODE_1320145    	148.0069    	0.004583    	                	;
 NODE_1329112    	158.3930    	0.000000    	                	;
 NODE_1330849    	160.2326    	0.002917    	                	;
 NODE_1320488    	165.8235    	0.000000    	                	;
 NODE_1329264    	152.6697    	0.006250    	                	;
 NODE_1328822    	150.3033    	0.003333    	                	;
 NODE_1319753    	164.2533    	0.000000    	                	;
 NODE_1321265    	143.5808    	0.002500    	                	;
 NODE_1330415    	151.2213    	0.004583    	                	;
 NODE_1330505    	159.6780    	0.000000    	                	;
 NODE_1330026    	166.2900    	0.000000    	                	;
 NODE_1321805    	160.5535    	0.000000    	                	;
 NODE_1327035    	165.1135    	0.007917    	                	;
 NODE_1330407    	152.8937    	0.004583    	                	;
 NODE_1336228    	149.5623    	0.002917    	                	;
 NODE_1329081    	163.3789    	0.001250    	                	;
 NODE_1322647    	148.6432    	0.000000    	                	;
 NODE_1341948    	150.0696    	0.000000    	                	;
 NODE_1319176    	148.1071    	0.000000    	                	;
 NODE_1342028    	161.8387    	0.000000    	                	;
 NODE_1342030    	164.9310    	0.000000    	                	;
 NODE_1342032    	166.3303    	0.000000    	                	;
 NODE_1322148    	165.3910    	0.000000    	                	;
 NODE_1327935    	144.4324    	0.003333    	                	;
 NODE_1321472    	144.4965    	0.000000    	                	;
 NODE_1329413    	150.8047    	0.002083    	                	;
 NODE_1320246    	152.4707    	0.006667    	                	;
 NODE_1342541    	153.9319    	0.000000    	                	;
 NODE_1331583    	152.8304    	0.002083    	                	;
 NODE_1328790    	148.2281    	0.001250    	                	;
 NODE_1329916    	155.8474    	0.002083    	                	;
 NODE_1329922    	156.4422    	0.005417    	                	;
 NODE_1337237    	152.5576    	0.005000    	                	;
 NODE_1337246    	152.1221    	0.000000    	                	;
 NODE_1337251    	156.4616    	0.000000    	                	;
 NODE_1329246    	156.7340    	0.007917    	                	;
 NODE_1322613    	152.6881    	0.002917    	                	;
 NODE_1329249    	155.8019    	0.002917    	                	;
 NODE_1329250    	156.1087    	0.002500    	                	;
 NODE_1330503    	158.2955    	0.000000    	                	;
 NODE_1322369    	165.4771    	0.000000    	                	;
 NODE_1338339    	166.2718    	0.000000    	                	;
 NODE_1321803    	161.6185    	0.000833    	                	;
 NODE_1327034    	156.3884    	0.027083    	                	;
 NODE_1327395    	153.8536    	0.009167    	                	;
 NODE_1327922    	164.4071    	0.000000    	                	;
 NODE_1328610    	159.6911    	0.003333    	                	;
 NODE_1329565    	166.4999    	0.000000    	                	;
 NODE_1336740    	166.2813    	0.000000    	                	;
 NODE_1336920    	158.6856    	0.000000    	                	;
 NODE_1329539    	164.3912    	0.000000    	                	;
 NODE_1342674    	162.7647    	0.000000    	                	;
 NODE_1342564    	161.3791    	0.000000    	                	;
 NODE_1342567    	161.9528    	0.000000    	                	;
 NODE_1329137    	146.9941    	0.002500    	                	;
 NODE_1321877    	144.4688    	0.000000    	                	;
 NODE_1319180    	156.9429    	0.000000    	                	;
 NODE_1328902    	144.5390    	0.000000    	                	;
 NODE_1329247    	155.4893    	0.000833    	                	;
 NODE_1327869    	153.8946    	0.000000    	                	;
 NODE_1330040    	166.2900    	0.000000    	                	;
 NODE_1330499    	164.6131    	0.000000    	                	;
 NODE_1342671    	161.2414    	0.000000    	                	;
 NODE_1339528    	146.9716    	0.000000    	                	;
 NODE_1328821    	148.3636    	0.003333    	                	;
 NODE_1323138    	150.5634    	0.003333    	                	;
 NODE_1337537    	159.3008    	0.000000    	                	;
 NODE_1321262    	142.8801    	0.000000    	                	;
 NODE_1339529    	146.9663    	0.000000    	                	;
 NODE_1336622    	148.3695    	0.000000    	                	;
 NODE_1338521    	154.8171    	0.000000    	                	;
 NODE_1328910    	144.8510    	0.000000    	                	;
 NODE_1329601    	153.7899    	0.002917    	                	;
 NODE_1329709    	158.8205    	0.013750    	                	;
 NODE_1328784    	148.5569    	0.000000    	                	;
 NODE_1320111    	148.2090    	0.000000    	                	;
 NODE_1330391    	152.6960    	0.004167    	                	;
 NODE_1328826    	157.3899    	0.001667    	                	;
 NODE_1323057    	155.1950    	0.006667    	                	;
 NODE_1330510    	161.4689    	0.004167    	                	;
 NODE_1329134    	155.7411    	0.000000    	                	;
 NODE_1329103    	159.3015    	0.000000    	                	;
 NODE_1320486    	162.6989    	0.000000    	                	;
 NODE_1341298    	162.8705    	0.000000    	                	;
 NODE_1341319    	158.0084    	0.017083    	                	;
 NODE_1335555    	157.7363    	0.000000    	                	;
 NODE_1329316    	148.5633    	0.004167    	                	;
 NODE_1329322    	147.4572    	0.003333    	                	;
 NODE_1337765    	144.6042    	0.008750    	                	;
 NODE_1329595    	152.4774    	0.000833    	                	;