[TITLE]
Converted from Epanet to Staci, case name: nagylozs.spr


[JUNCTIONS]
;ID              	Elev        	Demand      	Pattern         
 NODE_1323175    	150.2918    	0.000000    	                	;
 NODE_1339326    	146.8813    	0.000000    	                	;
 NODE_1320914    	159.8954    	0.000000    	                	;
 NODE_1327931    	139.8818    	0.000000    	                	;
 NODE_1339321    	146.4994    	0.000000    	                	;
 NODE_1321144    	156.9022    	0.000000    	                	;
 NODE_1321145    	156.3077    	0.000000    	                	;
 NODE_1327881    	143.4410    	0.000000    	                	;
 NODE_1327890    	146.2009    	0.000000    	                	;
 NODE_1323004    	146.3256    	0.000000    	                	;
 NODE_1328097    	141.6359    	0.000000    	                	;
 NODE_1330864    	140.2977    	0.000000    	                	;
 NODE_1328099    	140.0544    	0.000000    	                	;
 NODE_1316407    	140.8411    	0.000000    	                	;
 NODE_1337864    	141.7694    	0.000000    	                	;
 NODE_1316410    	153.8210    	0.000000    	                	;
 NODE_1328674    	147.0516    	0.000000    	                	;
 NODE_1328619    	146.4761    	0.000000    	                	;
 NODE_1336735    	146.6260    	0.000000    	                	;
 NODE_1328622    	148.7765    	0.000000    	                	;
 NODE_1320931    	148.1280    	0.000000    	                	;
 NODE_1328624    	146.8457    	0.000000    	                	;
 NODE_1328628    	147.7559    	0.000000    	                	;
 NODE_1328629    	149.4623    	0.000000    	                	;
 NODE_1328630    	149.6662    	0.008333    	                	;
 NODE_1328640    	146.6581    	0.000000    	                	;
 NODE_1328653    	147.9970    	0.000000    	                	;
 NODE_1330651    	158.4458    	0.000000    	                	;
 NODE_1330199    	157.1060    	0.000000    	                	;
 NODE_1319343    	155.5863    	0.000000    	                	;
 NODE_1330201    	153.2773    	0.000000    	                	;
 NODE_1341292    	148.5138    	0.000000    	                	;
 NODE_1330214    	153.7169    	0.000000    	                	;
 NODE_1330218    	153.7647    	0.000000    	                	;
 NODE_1330220    	152.0360    	0.000000    	                	;
 NODE_1323148    	150.9338    	0.000000    	                	;
 NODE_1315595    	148.5428    	0.000000    	                	;
 NODE_1341272    	156.4381    	0.000000    	                	;
 NODE_1322733    	151.2849    	0.002917    	                	;
 NODE_1320480    	146.7018    	0.000000    	                	;
 NODE_1341287    	146.7450    	0.000000    	                	;
 NODE_1320912    	159.8875    	0.000000    	                	;
 NODE_1320917    	160.0983    	0.000000    	                	;
 NODE_1321134    	159.9647    	0.000000    	                	;
 NODE_1337559    	153.7078    	0.000000    	                	;
 NODE_1341049    	156.2745    	0.000000    	                	;
 NODE_1321138    	160.0517    	0.000000    	                	;
 NODE_1321139    	160.2676    	0.000000    	                	;
 NODE_1336986    	154.3494    	0.000000    	                	;
 NODE_1327874    	144.3894    	0.000000    	                	;
 NODE_1337664    	145.1748    	0.000000    	                	;
 NODE_1327876    	144.2483    	0.000417    	                	;
 NODE_1327883    	143.0858    	0.000000    	                	;
 NODE_1337827    	148.4631    	0.000000    	                	;
 NODE_1337831    	148.1394    	0.000000    	                	;
 NODE_1327892    	146.7470    	0.000000    	                	;
 NODE_1327895    	142.7624    	0.000000    	                	;
 NODE_1316403    	142.1617    	0.000000    	                	;
 NODE_1328098    	140.7922    	0.000000    	                	;
 NODE_1336913    	140.4860    	0.000000    	                	;
 NODE_1328100    	139.8762    	0.000000    	                	;
 NODE_1328101    	139.9369    	0.000000    	                	;
 NODE_1328103    	139.7397    	0.000000    	                	;
 NODE_1328106    	141.1146    	0.000000    	                	;
 NODE_1328110    	142.0859    	0.000000    	                	;
 NODE_1331492    	153.3550    	0.000000    	                	;
 NODE_1320598    	147.5865    	0.000000    	                	;
 NODE_1328627    	147.9240    	0.000000    	                	;
 NODE_1328641    	146.5994    	0.000833    	                	;
 NODE_1328649    	143.7557    	0.000000    	                	;
 NODE_1337762    	145.0136    	0.000000    	                	;
 NODE_1321252    	147.0580    	0.000000    	                	;
 NODE_1320079    	155.7559    	0.006250    	                	;
 NODE_1330190    	155.8300    	0.000000    	                	;
 NODE_1320086    	148.8053    	0.000000    	                	;
 NODE_1320091    	153.6999    	0.000000    	                	;
 NODE_1330223    	146.3972    	0.000000    	                	;
 NODE_1339319    	158.7566    	0.000000    	                	;
 NODE_1322652    	151.2267    	0.000000    	                	;
 NODE_1339315    	140.9997    	0.000000    	                	;
 NODE_1320474    	157.0998    	0.000000    	                	;
 NODE_1341284    	146.3110    	0.000000    	                	;
 NODE_1341288    	146.9202    	0.000000    	                	;
 NODE_1341289    	146.9083    	0.004167    	                	;
 NODE_1320910    	159.2230    	0.000000    	                	;
 NODE_1320920    	160.3965    	0.000000    	                	;
 NODE_1320151    	148.3900    	0.000000    	                	;
 NODE_1341050    	159.4784    	0.000000    	                	;
 NODE_1341293    	154.8323    	0.000000    	                	;
 NODE_1321149    	153.5795    	0.000000    	                	;
 NODE_1337096    	141.4970    	0.000000    	                	;
 NODE_1327878    	143.8552    	0.000000    	                	;
 NODE_1327880    	143.6946    	0.003750    	                	;
 NODE_1327882    	143.1056    	0.000000    	                	;
 NODE_1316398    	145.7491    	0.002500    	                	;
 NODE_1327889    	146.2930    	0.000000    	                	;
 NODE_1327896    	142.3684    	0.000000    	                	;
 NODE_1328102    	140.3209    	0.000000    	                	;
 NODE_1316406    	140.9746    	0.000000    	                	;
 NODE_1320930    	148.1829    	0.000000    	                	;
 NODE_1328620    	148.6755    	0.000000    	                	;
 NODE_1323147    	148.5584    	0.000000    	                	;
 NODE_1328623    	154.3657    	0.000000    	                	;
 NODE_1328626    	148.0690    	0.000000    	                	;
 NODE_1321245    	149.6486    	0.000000    	                	;
 NODE_1330191    	155.6932    	0.000000    	                	;
 NODE_1330198    	157.6726    	0.008750    	                	;
 NODE_1330202    	152.7031    	0.000000    	                	;
 NODE_1330203    	148.1283    	0.000000    	                	;
 NODE_1323015    	146.7678    	0.000000    	                	;
 NODE_1320016    	147.1040    	0.000000    	                	;
 NODE_1330210    	152.9705    	0.000000    	                	;
 NODE_1320089    	153.5712    	0.002083    	                	;
 NODE_1330219    	153.3690    	0.000000    	                	;
 NODE_1320596    	151.5196    	0.000000    	                	;
 NODE_1322653    	159.1246    	0.000000    	                	;
 NODE_1339317    	153.3130    	0.023333    	                	;
 NODE_1341051    	159.2353    	0.000000    	                	;
 NODE_1341054    	157.6606    	0.005833    	                	;
 NODE_1330971    	157.2009    	0.000000    	                	;
 NODE_1341273    	155.9296    	0.000000    	                	;
 NODE_1341277    	151.2364    	0.000000    	                	;
 NODE_1341280    	150.7109    	0.000000    	                	;
 NODE_1341282    	149.7342    	0.000000    	                	;
 NODE_1341294    	155.3183    	0.000000    	                	;
 NODE_1339325    	146.0931    	0.000000    	                	;
 NODE_1339329    	144.3754    	0.000000    	                	;
 NODE_1339332    	154.8274    	0.000000    	                	;
 NODE_1323178    	139.6563    	0.000000    	                	;
 NODE_1328113    	153.0150    	0.000000    	                	;
 NODE_1320483    	159.6763    	0.000000    	                	;
 NODE_1322654    	148.2152    	0.000000    	                	;
 NODE_1327884    	143.1263    	0.000000    	                	;
 NODE_1327888    	145.9536    	0.000000    	                	;
 NODE_1321164    	146.3639    	0.000000    	                	;
 NODE_1316402    	143.4267    	0.000000    	                	;
 NODE_1316404    	140.8900    	0.000000    	                	;
 NODE_1328107    	141.4771    	0.000000    	                	;
 NODE_1316411    	145.9828    	0.000000    	                	;
 NODE_1320932    	147.9016    	0.000000    	                	;
 NODE_1329388    	146.3665    	0.000000    	                	;
 NODE_1328625    	148.5225    	0.000000    	                	;
 NODE_1328633    	147.1075    	0.000000    	                	;
 NODE_1328645    	145.6963    	0.000000    	                	;
 NODE_1331008    	144.4093    	0.010417    	                	;
 NODE_1328654    	151.1658    	0.000000    	                	;
 NODE_1331116    	153.9955    	0.000000    	                	;
 NODE_1320078    	155.2470    	0.000000    	                	;
 NODE_1320080    	155.8894    	0.000000    	                	;
 NODE_1320082    	158.4406    	0.000000    	                	;
 NODE_1331189    	158.0957    	0.000000    	                	;
 NODE_1320084    	154.4124    	0.000000    	                	;
 NODE_1330206    	150.0461    	0.007083    	                	;
 NODE_1330208    	151.3994    	0.000000    	                	;
 NODE_1330212    	153.6754    	0.000000    	                	;
 NODE_1330217    	153.3434    	0.000000    	                	;
 NODE_1330222    	153.6164    	0.000000    	                	;
 NODE_1341297    	141.6131    	0.000000    	                	;
 NODE_1331179    	157.7920    	0.005000    	                	;
 NODE_1341055    	157.1564    	0.000000    	                	;
 NODE_1341274    	155.5322    	0.000000    	                	;
 NODE_1320913    	159.8902    	0.000000    	                	;
 NODE_1320915    	160.2006    	0.000000    	                	;
 NODE_1320916    	160.1368    	0.000000    	                	;
 NODE_1321135    	160.2785    	0.000417    	                	;
 NODE_1339327    	142.4432    	0.000000    	                	;
 NODE_1321146    	155.5200    	0.000000    	                	;
 NODE_1327877    	144.2185    	0.000000    	                	;
 NODE_1327887    	145.5012    	0.002083    	                	;
 NODE_1327891    	145.9027    	0.000000    	                	;
 NODE_1320849    	146.5336    	0.000000    	                	;
 NODE_1328105    	140.6972    	0.000000    	                	;
 NODE_1328108    	141.6920    	0.000000    	                	;
 NODE_1328111    	144.5959    	0.000000    	                	;
 NODE_1328112    	146.1867    	0.005000    	                	;
 NODE_1330442    	151.3079    	0.000000    	                	;
 NODE_1337756    	146.4522    	0.000000    	                	;
 NODE_1337761    	147.9775    	0.000000    	                	;
 NODE_1328621    	148.3301    	0.000000    	                	;
 NODE_1331115    	151.6856    	0.000000    	                	;
 NODE_1321244    	149.1604    	0.000000    	                	;
 NODE_1328637    	146.7765    	0.000000    	                	;
 NODE_1328638    	146.7502    	0.000000    	                	;
 NODE_1328639    	146.6844    	0.000000    	                	;
 NODE_1328644    	146.0353    	0.000000    	                	;
 NODE_1328647    	143.3369    	0.000000    	                	;
 NODE_1329113    	143.2773    	0.000000    	                	;
 NODE_1328651    	146.3673    	0.000000    	                	;
 NODE_1330192    	156.2201    	0.000000    	                	;
 NODE_1330193    	156.7258    	0.000000    	                	;
 NODE_1330204    	146.8715    	0.007500    	                	;
 NODE_1320841    	150.2228    	0.000000    	                	;
 NODE_1331487    	151.6723    	0.000000    	                	;
 NODE_1320088    	151.9458    	0.000000    	                	;
 NODE_1330213    	153.5484    	0.000000    	                	;
 NODE_1330215    	154.7229    	0.000000    	                	;
 NODE_1337883    	151.2605    	0.000000    	                	;
 NODE_1329141    	147.5340    	0.000000    	                	;
 NODE_1320473    	158.8459    	0.000000    	                	;
 NODE_1341271    	157.1679    	0.003750    	                	;
 NODE_1320477    	151.0524    	0.000000    	                	;
 NODE_1341278    	151.0870    	0.000000    	                	;
 NODE_1341279    	150.4128    	0.000000    	                	;
 NODE_1341285    	146.4338    	0.007083    	                	;
 NODE_1320911    	159.6694    	0.000833    	                	;
 NODE_1320481    	146.5784    	0.000000    	                	;
 NODE_1341295    	157.7874    	0.000000    	                	;
 NODE_1337733    	143.2657    	0.000000    	                	;
 NODE_1339330    	143.9537    	0.000000    	                	;
 NODE_1339216    	146.9497    	0.000000    	                	;
 NODE_1341048    	150.4704    	0.000000    	                	;
 NODE_1321141    	160.1940    	0.000000    	                	;
 NODE_1323146    	144.4876    	0.000000    	                	;
 NODE_1316394    	143.8991    	0.000000    	                	;
 NODE_1327879    	143.5999    	0.000000    	                	;
 NODE_1316395    	143.5737    	0.000000    	                	;
 NODE_1319562    	143.0873    	0.000000    	                	;
 NODE_1327885    	145.5785    	0.000000    	                	;
 NODE_1330441    	146.2219    	0.000000    	                	;
 NODE_1330892    	144.9920    	0.000000    	                	;
 NODE_1337826    	154.8166    	0.049167    	                	;
 NODE_1337828    	149.3051    	0.000000    	                	;
 NODE_1337832    	151.1865    	0.233333    	                	;
 NODE_1331108    	146.4487    	0.000000    	                	;
 NODE_1328104    	140.4865    	0.000000    	                	;
 NODE_1338014    	155.4742    	0.000000    	                	;
 NODE_1316408    	141.8342    	0.000000    	                	;
 NODE_1316409    	144.2742    	0.000000    	                	;
 NODE_1328618    	147.3104    	0.001667    	                	;
 NODE_1320929    	146.9197    	0.000000    	                	;
 NODE_1336917    	154.4321    	0.000000    	                	;
 NODE_1320933    	148.2540    	0.000000    	                	;
 NODE_1328632    	147.1589    	0.000000    	                	;
 NODE_1321246    	146.8919    	0.000000    	                	;
 NODE_1330443    	146.8108    	0.000000    	                	;
 NODE_1328642    	146.2064    	0.000000    	                	;
 NODE_1321250    	144.0632    	0.000000    	                	;
 NODE_1321255    	151.0902    	0.008750    	                	;
 NODE_1321253    	151.6694    	0.000000    	                	;
 NODE_1330189    	156.0681    	0.000000    	                	;
 NODE_1330194    	157.1574    	0.000000    	                	;
 NODE_1320081    	157.5462    	0.006250    	                	;
 NODE_1330197    	158.7948    	0.000000    	                	;
 NODE_1320083    	156.7151    	0.000000    	                	;
 NODE_1330200    	155.9434    	0.000000    	                	;
 NODE_1320599    	155.1791    	0.000000    	                	;
 NODE_1330211    	153.1536    	0.000000    	                	;
 NODE_1330216    	154.0447    	0.000000    	                	;
 NODE_1330221    	151.7132    	0.000000    	                	;
 NODE_1320093    	150.6227    	0.000000    	                	;
 NODE_1339318    	146.8384    	0.000000    	                	;
 NODE_1321717    	158.8002    	0.000000    	                	;
 NODE_1341053    	158.1539    	0.000000    	                	;
 NODE_1320476    	154.4189    	0.000000    	                	;
 NODE_1320918    	160.4863    	0.000000    	                	;
 NODE_1341283    	146.2875    	0.002500    	                	;
 NODE_1320484    	143.3116    	0.000000    	                	;
 NODE_1323176    	146.7467    	0.000000    	                	;
 NODE_1339320    	140.0945    	0.000000    	                	;
 NODE_1321143    	159.9210    	0.000000    	                	;
 NODE_1341290    	147.0644    	0.000000    	                	;
 NODE_1323177    	144.9592    	0.000000    	                	;
 NODE_1321142    	160.1106    	0.000000    	                	;
 NODE_1321147    	154.7961    	0.000000    	                	;
 NODE_1331500    	153.8825    	0.000000    	                	;
 NODE_1316393    	144.4190    	0.000000    	                	;
 NODE_1316400    	146.0680    	0.000000    	                	;
 NODE_1316401    	146.5816    	0.000000    	                	;
 NODE_1327893    	146.2739    	0.000000    	                	;
 NODE_1327894    	144.2927    	0.000000    	                	;
 NODE_1336731    	141.9397    	0.001250    	                	;
 NODE_1331494    	141.1976    	0.000000    	                	;
 NODE_1316405    	139.8257    	0.000000    	                	;
 NODE_1337833    	148.1258    	0.000000    	                	;
 NODE_1328109    	141.8458    	0.000000    	                	;
 NODE_1329135    	150.9556    	0.000000    	                	;
 NODE_1328114    	150.3626    	0.000000    	                	;
 NODE_1328115    	145.9431    	0.000000    	                	;
 NODE_1328617    	147.5517    	0.000000    	                	;
 NODE_1328634    	146.9708    	0.000000    	                	;
 NODE_1328636    	146.4360    	0.000000    	                	;
 NODE_1321247    	146.8443    	0.003750    	                	;
 NODE_1321248    	146.5325    	0.000000    	                	;
 NODE_1328646    	144.6359    	0.000000    	                	;
 NODE_1319810    	143.9660    	0.000000    	                	;
 NODE_1321251    	143.2858    	0.000000    	                	;
 NODE_1328650    	143.7990    	0.000000    	                	;
 NODE_1320853    	144.8132    	0.000000    	                	;
 NODE_1321385    	155.6599    	0.000000    	                	;
 NODE_1320085    	147.5685    	0.000000    	                	;
 NODE_1320087    	149.7790    	0.000000    	                	;
 NODE_1330207    	150.6689    	0.000000    	                	;
 NODE_1330209    	152.1200    	0.000000    	                	;
 NODE_1330224    	149.8747    	0.009583    	                	;
 NODE_1341052    	158.3663    	0.000417    	                	;
 NODE_1319630    	157.0734    	0.003333    	                	;
 NODE_1320475    	156.6678    	0.000000    	                	;
 NODE_1341281    	150.2235    	0.000000    	                	;
 NODE_1341286    	146.5367    	0.000000    	                	;
 NODE_1320921    	160.5477    	0.000000    	                	;
 NODE_1339323    	148.1333    	0.000000    	                	;
 NODE_1339324    	148.1223    	0.000000    	                	;
 NODE_1339328    	141.5905    	0.000000    	                	;
 NODE_1339331    	151.4085    	0.000000    	                	;
 NODE_1321136    	160.2499    	0.000000    	                	;
 NODE_1321137    	160.2289    	0.000000    	                	;
 NODE_1321140    	160.1821    	0.000000    	                	;
 NODE_1321148    	153.9460    	0.000000    	                	;
 NODE_1337412    	146.8390    	0.000000    	                	;
 NODE_1327875    	144.4049    	0.000000    	                	;
 NODE_1316396    	143.1503    	0.000000    	                	;
 NODE_1327886    	145.4043    	0.011250    	                	;
 NODE_1337755    	146.1227    	0.000000    	                	;
 NODE_1316399    	146.3317    	0.000000    	                	;
 NODE_1330793    	142.4252    	0.000000    	                	;
 NODE_1338015    	151.4296    	0.000000    	                	;
 NODE_1328673    	141.9427    	0.005417    	                	;
 NODE_1337865    	148.0757    	0.000000    	                	;
 NODE_1328631    	149.5261    	0.000000    	                	;
 NODE_1328635    	146.4961    	0.000000    	                	;
 NODE_1328643    	146.0741    	0.000000    	                	;
 NODE_1321249    	145.6239    	0.000000    	                	;
 NODE_1328648    	143.5539    	0.002083    	                	;
 NODE_1330650    	143.9164    	0.000000    	                	;
 NODE_1328652    	147.2304    	0.000000    	                	;
 NODE_1328655    	153.0783    	0.000000    	                	;
 NODE_1321254    	154.8111    	0.000000    	                	;
 NODE_1330195    	157.7242    	0.000000    	                	;
 NODE_1330196    	159.1846    	0.000000    	                	;
 NODE_1320027    	149.3730    	0.000000    	                	;
 NODE_1330205    	149.7234    	0.000000    	                	;
 NODE_1320090    	153.7817    	0.000000    	                	;
 NODE_1320092    	152.6925    	0.000000    	                	;
 NODE_1330844    	150.3265    	0.006250    	                	;
 NODE_1339316    	159.2862    	0.000000    	                	;
 NODE_1341296    	147.3715    	0.000000    	                	;
 NODE_1341270    	157.1963    	0.000000    	                	;
 NODE_1341275    	154.4972    	0.004583    	                	;
 NODE_1341276    	151.4837    	0.000000    	                	;
 NODE_1320478    	150.8854    	0.000000    	                	;
 NODE_1320479    	146.2763    	0.002083    	                	;
 NODE_1320919    	160.4161    	0.000000    	                	;
 NODE_11448      	140.1862    	0.000000    	                	;
 NODE_11448_1    	140.1728    	0.000000    	                	;
 NODE_1345680    	149.1737    	0.000000    	                	;
 NODE_6044       	157.9586    	0.000000    	                	;
 NODE_6044_1     	157.9586    	0.000000    	                	;
 NODE_11272      	151.2210    	0.000000    	                	;
 NODE_11272_1    	151.1897    	0.000000    	                	;
 NODE_13541      	153.6950    	0.000000    	                	;
 NODE_13541_1    	153.6997    	0.000000    	                	;
 NODE_1345533    	148.2526    	0.000000    	                	;
 NODE_13540      	157.9593    	0.000000    	                	;
 NODE_13540_1    	157.9640    	0.000000    	                	;
 NODE_11284      	157.5821    	0.000000    	                	;
 NODE_11284_1    	157.5821    	0.000000    	                	;
 NODE_11267      	146.3783    	0.000000    	                	;
 NODE_11267_1    	146.3223    	0.000000    	                	;
 NODE_11249      	143.1446    	0.000000    	                	;
 NODE_11249_1    	143.1176    	0.000000    	                	;
 NODE_13542      	153.6962    	0.000000    	                	;
 NODE_13542_1    	153.7008    	0.000000    	                	;
 NODE_13543      	154.1966    	0.000000    	                	;
 NODE_13543_1    	154.2013    	0.000000    	                	;
 NODE_1345687    	140.1865    	0.000000    	                	;
 NODE_11445      	153.6408    	0.000000    	                	;
 NODE_11445_1    	153.6002    	0.000000    	                	;
 NODE_11323230   	140.1639    	0.000000    	                	;
 NODE_1345693    	142.1051    	0.000000    	                	;
 NODE_11279      	142.1077    	0.000000    	                	;
 NODE_11279_1    	142.0847    	0.000000    	                	;
 NODE_11276      	147.3719    	0.000000    	                	;
 NODE_11276_1    	147.3294    	0.000000    	                	;
 NODE_11275      	147.3718    	0.000000    	                	;
 NODE_11275_1    	147.3232    	0.000000    	                	;
 NODE_1345679    	149.1680    	0.000000    	                	;
 NODE_11273      	147.3610    	0.000000    	                	;
 NODE_11273_1    	147.3133    	0.000000    	                	;
 NODE_13275      	149.0969    	0.000000    	                	;
 NODE_13275_1    	148.9289    	0.000000    	                	;
 NODE_1320909    	159.1203    	0.000000    	                	;
 NODE_1345534    	153.6107    	0.000000    	                	;
 NODE_11278      	153.3026    	0.000000    	                	;
 NODE_11278_1    	153.3772    	0.000000    	                	;
 NODE_1345695    	147.3719    	0.000000    	                	;
 NODE_1345661    	151.5898    	0.000000    	                	;
 NODE_11264      	146.0998    	0.000000    	                	;
 NODE_11264_1    	146.0678    	0.000000    	                	;
 NODE_11274      	147.3802    	0.000000    	                	;
 NODE_11274_1    	147.3360    	0.000000    	                	;
 NODE_1345535    	157.8361    	0.000000    	                	;
 NODE_1345617    	157.9611    	0.000000    	                	;
 NODE_11280      	142.5488    	0.000000    	                	;
 NODE_11280_1    	142.5258    	0.000000    	                	;
 NODE_11271      	151.5820    	0.000000    	                	;
 NODE_11271_1    	151.5507    	0.000000    	                	;
 NODE_1345641    	153.6939    	0.000000    	                	;
 NODE_11281      	142.5425    	0.000000    	                	;
 NODE_11281_1    	142.5195    	0.000000    	                	;
 NODE_13276      	149.1364    	0.000000    	                	;
 NODE_13276_1    	148.9684    	0.000000    	                	;
 NODE_11269      	146.3699    	0.000000    	                	;
 NODE_11269_1    	146.3139    	0.000000    	                	;
 NODE_11263      	146.0807    	0.000000    	                	;
 NODE_11263_1    	146.0487    	0.000000    	                	;
 NODE_1345475    	154.2013    	0.000000    	                	;
 NODE_11277      	146.8473    	0.000000    	                	;
 NODE_11277_1    	146.7986    	0.000000    	                	;
 NODE_11285      	157.5924    	0.000000    	                	;
 NODE_11285_1    	157.5924    	0.000000    	                	;
 NODE_3967191    	159.3459    	0.000000    	                	;
 NODE_1345703    	151.2164    	0.000000    	                	;
 NODE_11270      	151.5762    	0.000000    	                	;
 NODE_11270_1    	151.5449    	0.000000    	                	;
 NODE_1345706    	143.1393    	0.000000    	                	;
 NODE_1345637    	146.3764    	0.000000    	                	;
 NODE_1345642    	157.9633    	0.000000    	                	;
 NODE_1345618    	156.1626    	0.000000    	                	;
 NODE_1345688    	149.1196    	0.000000    	                	;
 NODE_1345662    	157.5872    	0.000000    	                	;
 NODE_1345638    	142.5439    	0.000000    	                	;
 NODE_1345683    	140.1895    	0.000000    	                	;
 NODE_1345696    	146.0894    	0.000000    	                	;
 NODE_1345697    	145.9429    	0.000000    	                	;
 NODE_11439      	149.2097    	0.000000    	                	;
 NODE_11439_1    	149.1650    	0.000000    	                	;
 NODE_11268      	146.3830    	0.000000    	                	;
 NODE_11268_1    	146.3270    	0.000000    	                	;
 NODE_11440      	149.1619    	0.000000    	                	;
 NODE_11440_1    	149.1173    	0.000000    	                	;
 NODE_11266      	146.0942    	0.000000    	                	;
 NODE_11266_1    	146.0382    	0.000000    	                	;
 NODE_1345684    	140.1608    	0.000000    	                	;
 NODE_1345639    	146.8503    	0.000000    	                	;

[RESERVOIRS]
;ID              	Head        	Pattern         
 PRESS_131       	195.2537    	                
 PRESS_32        	192.1982    	                

[TANKS]
;ID             	Elevation   	InitLevel   	MinLevel    	MaxLevel    	Diameter    	MinVol      	VolCurve
 POOL_205        	192.3500    	4.5700      	0.0000      	1000.0000   	5.5834      	0.0000      	                	

[PIPES]
;ID             	Node1           	Node2           	Length      	Diameter    	Roughness   	MinorLoss   	Status
 PIPE_526615     	POOL_205        	NODE_1345617    	114.2387    	110.0000    	0.0200     	0.0000      	Open  ;
 PIPE_526619     	NODE_1345535    	NODE_1345662    	7.0644      	100.0000    	0.0200     	0.0000      	Open  ;
 PIPE_526762     	NODE_1345617    	NODE_1345535    	3.5221      	100.0000    	0.0200     	0.0000      	Open  ;
 PIPE_526803     	NODE_1345638    	NODE_1345693    	34.2649     	90.0000     	0.0200     	0.0000      	Open  ;
 PIPE_526865     	NODE_1345679    	NODE_1345680    	0.3456      	110.0000    	0.0200     	0.0000      	Open  ;
 PIPE_526887     	PRESS_32        	NODE_1345684    	4.1501      	63.0000     	0.0200     	0.0000      	Open  ;
 PIPE_526888     	NODE_1345687    	NODE_1345683    	11.2850     	110.0000    	0.0200     	0.0000      	Open  ;
 PIPE_526904     	NODE_1345697    	NODE_1345696    	12.4991     	100.0000    	0.0200     	0.0000      	Open  ;
 PIPE_1449693    	NODE_1345697    	NODE_1337733    	89.6358     	100.0000    	0.0200     	0.0000      	Open  ;
 PIPE_1449707    	NODE_1321135    	NODE_1321134    	14.3348     	110.0000    	0.0200     	0.0000      	Open  ;
 PIPE_1449712    	NODE_1321134    	NODE_1320921    	8.1459      	110.0000    	0.0200     	0.0000      	Open  ;
 PIPE_1449717    	NODE_1320921    	NODE_1320920    	15.1672     	110.0000    	0.0200     	0.0000      	Open  ;
 PIPE_1449722    	NODE_1320920    	NODE_1320919    	3.5242      	110.0000    	0.0200     	0.0000      	Open  ;
 PIPE_1449727    	NODE_1320919    	NODE_1320918    	12.1053     	110.0000    	0.0200     	0.0000      	Open  ;
 PIPE_1449732    	NODE_1320918    	NODE_1320917    	15.7864     	110.0000    	0.0200     	0.0000      	Open  ;
 PIPE_1449737    	NODE_1320917    	NODE_1320916    	1.6090      	110.0000    	0.0200     	0.0000      	Open  ;
 PIPE_1449742    	NODE_1320916    	NODE_1320915    	14.3081     	110.0000    	0.0200     	0.0000      	Open  ;
 PIPE_1449747    	NODE_1320915    	NODE_1320914    	14.3189     	110.0000    	0.0200     	0.0000      	Open  ;