[TITLE]
Converted from Epanet to Staci, case name: nyarliget.spr


[JUNCTIONS]
;ID              	Elev        	Demand      	Pattern         
 NODE_1328769    	115.4516    	0.000000    	                	;
 NODE_1323019    	115.9454    	0.000000    	                	;
 NODE_1336507    	116.6519    	0.000817    	                	;
 NODE_1328263    	115.4146    	0.000233    	                	;
 NODE_1336244    	115.1317    	0.000000    	                	;
 NODE_1328766    	115.2929    	0.000000    	                	;
 NODE_1328267    	115.0200    	0.000417    	                	;
 NODE_1328274    	115.4281    	0.006250    	                	;
 NODE_1335797    	116.0736    	0.000625    	                	;
 NODE_1330996    	116.3556    	0.002917    	                	;
 NODE_1316369    	115.3826    	0.002500    	                	;
 NODE_1328762    	115.2575    	0.005417    	                	;
 NODE_1316370    	115.2698    	0.005833    	                	;
 NODE_1322453    	116.2359    	0.003333    	                	;
 NODE_1328241    	116.1329    	0.003750    	                	;
 NODE_1328242    	116.1382    	0.002917    	                	;
 NODE_1328245    	115.9660    	0.001250    	                	;
 NODE_1331553    	115.8344    	0.009167    	                	;
 NODE_1328251    	115.2469    	0.005279    	                	;
 NODE_1329447    	116.2552    	0.000000    	                	;
 NODE_1330942    	115.4269    	0.000000    	                	;
 NODE_1331554    	116.1331    	0.000000    	                	;
 NODE_1329870    	116.6440    	0.000000    	                	;
 NODE_1319665    	115.0628    	0.012500    	                	;
 NODE_1319224    	116.1108    	0.005000    	                	;
 NODE_1328266    	115.0273    	0.002500    	                	;
 NODE_1319226    	115.1787    	0.003333    	                	;
 NODE_1339785    	115.9685    	0.000833    	                	;
 NODE_1323135    	115.8434    	0.003333    	                	;
 NODE_1321222    	116.2773    	0.000000    	                	;
 NODE_1336241    	116.1866    	0.000000    	                	;
 NODE_1328260    	114.9463    	0.004167    	                	;
 NODE_1328270    	115.4675    	0.004167    	                	;
 NODE_1328271    	115.5743    	0.001250    	                	;
 NODE_1328275    	115.5633    	0.005417    	                	;
 NODE_1319229    	115.8000    	0.003750    	                	;
 NODE_1328280    	116.3554    	0.002917    	                	;
 NODE_1335802    	116.5426    	0.003333    	                	;
 NODE_1328754    	116.5294    	0.009008    	                	;
 NODE_1328760    	115.5034    	0.005000    	                	;
 NODE_1328761    	115.3299    	0.006250    	                	;
 NODE_1328765    	115.4357    	0.001667    	                	;
 NODE_1322402    	116.2251    	0.002083    	                	;
 NODE_1339786    	115.8088    	0.001667    	                	;
 NODE_1328246    	115.9700    	0.004167    	                	;
 NODE_1322933    	115.9409    	0.002083    	                	;
 NODE_1328247    	115.9078    	0.008750    	                	;
 NODE_1322455    	115.9114    	0.001667    	                	;
 NODE_1316373    	115.4543    	0.000000    	                	;
 NODE_1328257    	115.3757    	0.000000    	                	;
 NODE_1328258    	115.1517    	0.003750    	                	;
 NODE_1319223    	115.5831    	0.000833    	                	;
 NODE_1337087    	115.6243    	0.000833    	                	;
 NODE_1316372    	115.9718    	0.000417    	                	;
 NODE_1328277    	115.8905    	0.002917    	                	;
 NODE_1319230    	116.1944    	0.003750    	                	;
 NODE_1320128    	116.4789    	0.000000    	                	;
 NODE_1336421    	116.4950    	0.003750    	                	;
 NODE_1339782    	116.2337    	0.003750    	                	;
 NODE_1336748    	116.2548    	0.000833    	                	;
 NODE_1322403    	115.9849    	0.004167    	                	;
 NODE_1328248    	115.6632    	0.004167    	                	;
 NODE_1328250    	115.3024    	0.002500    	                	;
 NODE_1328252    	115.7473    	0.006667    	                	;
 NODE_1320284    	115.7435    	0.002812    	                	;
 NODE_1328253    	115.9568    	0.000833    	                	;
 NODE_1328770    	115.9714    	0.000000    	                	;
 NODE_1336762    	116.2140    	0.000000    	                	;
 NODE_1328255    	116.0608    	0.004583    	                	;
 NODE_1319220    	115.6934    	0.002917    	                	;
 NODE_1328256    	115.7782    	0.000833    	                	;
 NODE_1336754    	115.4494    	0.003750    	                	;
 NODE_1329871    	116.2421    	0.000000    	                	;
 NODE_1336508    	116.3595    	0.000942    	                	;
 NODE_1328768    	116.4913    	0.000000    	                	;
 NODE_1328265    	115.0563    	0.001667    	                	;
 NODE_1319227    	115.5116    	0.005000    	                	;
 NODE_1328278    	115.9978    	0.003333    	                	;
 NODE_1328281    	116.3551    	0.002083    	                	;
 NODE_1339780    	116.1155    	0.001667    	                	;
 NODE_1339781    	116.0980    	0.001667    	                	;
 NODE_1328243    	116.0287    	0.000000    	                	;
 NODE_1322932    	116.0346    	0.002083    	                	;
 NODE_1328244    	115.9880    	0.001667    	                	;
 NODE_1328249    	115.6816    	0.005000    	                	;
 NODE_1329448    	116.2528    	0.000000    	                	;
 NODE_1319222    	115.1071    	0.003750    	                	;
 NODE_1320123    	115.1738    	0.004167    	                	;
 NODE_1341975    	116.1332    	0.000000    	                	;
 NODE_1336509    	116.1168    	0.001892    	                	;
 NODE_1341974    	116.1192    	0.000000    	                	;
 NODE_1328264    	115.5265    	0.001667    	                	;
 NODE_1328268    	115.1852    	0.001250    	                	;
 NODE_1338134    	115.4478    	0.002500    	                	;
 NODE_1328757    	115.9255    	0.006667    	                	;
 NODE_1316368    	115.7591    	0.002083    	                	;
 NODE_1336759    	115.2285    	0.007500    	                	;
 NODE_1339783    	116.1218    	0.002500    	                	;
 NODE_1339788    	115.7564    	0.002500    	                	;
 NODE_1319217    	115.4201    	0.000000    	                	;
 NODE_1319219    	115.8871    	0.005417    	                	;
 NODE_1336247    	116.2579    	0.000000    	                	;
 NODE_1319221    	115.1036    	0.000000    	                	;
 NODE_1328259    	115.0160    	0.003750    	                	;
 NODE_1328261    	115.2157    	0.002083    	                	;
 NODE_1317046    	115.4744    	0.000000    	                	;
 NODE_1318201    	116.3750    	0.016050    	                	;
 NODE_1328269    	115.4491    	0.010167    	                	;
 NODE_1319228    	115.4267    	0.006667    	                	;
 NODE_1328276    	115.6729    	0.002917    	                	;
 NODE_1316367    	116.5169    	0.008333    	                	;
 NODE_1328758    	115.6300    	0.005833    	                	;
 NODE_1328759    	115.7258    	0.000000    	                	;
 NODE_1328240    	115.7529    	0.002917    	                	;
 NODE_1322931    	115.8897    	0.007917    	                	;
 NODE_1319218    	115.5174    	0.008750    	                	;
 NODE_1329449    	116.2557    	0.000000    	                	;
 NODE_1321221    	116.2641    	0.000000    	                	;
 NODE_1316375    	115.9974    	0.000000    	                	;
 NODE_1328262    	115.2582    	0.000417    	                	;
 NODE_1336212    	115.5771    	0.000833    	                	;
 NODE_1339779    	115.8747    	0.000000    	                	;
 NODE_1329872    	115.9235    	0.000000    	                	;
 NODE_1336499    	115.0698    	0.004167    	                	;
 NODE_1319225    	115.0602    	0.002592    	                	;
 NODE_1328272    	115.5317    	0.007267    	                	;
 NODE_1328273    	115.4555    	0.000417    	                	;
 NODE_1328279    	116.2616    	0.003333    	                	;
 NODE_1328755    	116.5285    	0.005012    	                	;
 NODE_1328756    	116.3793    	0.004583    	                	;
 NODE_1328763    	115.2691    	0.002083    	                	;
 NODE_1328764    	115.4183    	0.000000    	                	;
 NODE_1322401    	116.2113    	0.002083    	                	;
 NODE_1339784    	116.1475    	0.000037    	                	;
 NODE_1335796    	115.3232    	0.005417    	                	;
 NODE_1328254    	116.0812    	0.001667    	                	;
 NODE_10106      	116.1347    	0.000000    	                	;
 NODE_10106_1    	116.1247    	0.000000    	                	;
 NODE_1346068    	115.9131    	0.000000    	                	;
 NODE_1346046    	116.1338    	0.000000    	                	;
 NODE_3998455    	115.7270    	0.000000    	                	;
 NODE_10109      	115.4503    	0.000000    	                	;
 NODE_10109_1    	115.4276    	0.000000    	                	;
 NODE_10113      	115.9183    	0.000000    	                	;
 NODE_10113_1    	115.9556    	0.000000    	                	;
 NODE_1346075    	115.0651    	0.000000    	                	;
 NODE_1346073    	115.6703    	0.000000    	                	;
 NODE_9957       	115.0654    	0.000000    	                	;
 NODE_9957_1     	115.1154    	0.000000    	                	;
 NODE_10104      	115.9158    	0.000000    	                	;
 NODE_10104_1    	115.9328    	0.000000    	                	;
 NODE_1346070    	115.9211    	0.000000    	                	;
 NODE_1346045    	115.8334    	0.000000    	                	;
 NODE_10325      	115.9233    	0.000000    	                	;
 NODE_10325_1    	115.9283    	0.000000    	                	;
 NODE_10112      	115.9239    	0.000000    	                	;
 NODE_10112_1    	115.9723    	0.000000    	                	;
 NODE_10105      	115.9158    	0.000000    	                	;
 NODE_10105_1    	115.9328    	0.000000    	                	;
 NODE_10103      	115.8276    	0.000000    	                	;
 NODE_10103_1    	115.8603    	0.000000    	                	;

[RESERVOIRS]
;ID              	Head        	Pattern         
 PRESS_136       	146.2496    	                

[TANKS]
;ID             	Elevation   	InitLevel   	MinLevel    	MaxLevel    	Diameter    	MinVol      	VolCurve

[PIPES]
;ID             	Node1           	Node2           	Length      	Diameter    	Roughness   	MinorLoss   	Status
 PIPE_578579     	NODE_1339779    	NODE_3998455    	8.6517      	90.0000     	0.0200     	0.0000      	Open  ;
 PIPE_578580     	NODE_1346045    	NODE_1346068    	14.4365     	100.0000    	0.0200     	0.0000      	Open  ;
 PIPE_578818     	NODE_1346073    	NODE_1346075    	30.9186     	100.0000    	0.0200     	0.0000      	Open  ;
 PIPE_578819     	PRESS_136       	NODE_1346073    	0.9810      	100.0000    	0.0200     	0.0000      	Open  ;
 PIPE_1467163    	NODE_1336212    	NODE_1319223    	0.4821      	100.0000    	0.0200     	0.0000      	Open  ;
 PIPE_1467169    	NODE_1328262    	NODE_1336212    	22.6554     	100.0000    	0.0200     	0.0000      	Open  ;
 PIPE_1467174    	NODE_1320123    	NODE_1328262    	5.8589      	100.0000    	0.0200     	0.0000      	Open  ;
 PIPE_1467179    	NODE_1328261    	NODE_1320123    	20.5817     	100.0000    	0.0200     	0.0000      	Open  ;
 PIPE_1467184    	NODE_1319222    	NODE_1328261    	5.6868      	100.0000    	0.0200     	0.0000      	Open  ;
 PIPE_1467193    	NODE_1328260    	NODE_1328259    	5.7893      	100.0000    	0.0200     	0.0000      	Open  ;
 PIPE_1467194    	NODE_1328259    	NODE_1319222    	21.0651     	100.0000    	0.0200     	0.0000      	Open  ;
 PIPE_1467204    	NODE_1328258    	NODE_1319221    	5.2121      	100.0000    	0.0200     	0.0000      	Open  ;
 PIPE_1467211    	NODE_1328257    	NODE_1328258    	19.5169     	100.0000    	0.0200     	0.0000      	Open  ;
 PIPE_1467216    	NODE_1336754    	NODE_1328257    	9.0325      	100.0000    	0.0200     	0.0000      	Open  ;
 PIPE_1467225    	NODE_1328256    	NODE_1319220    	5.6417      	100.0000    	0.0200     	0.0000      	Open  ;
 PIPE_1467226    	NODE_1319220    	NODE_1336754    	16.5942     	100.0000    	0.0200     	0.0000      	Open  ;
 PIPE_1467232    	NODE_1328255    	NODE_1328256    	22.4685     	100.0000    	0.0200     	0.0000      	Open  ;
 PIPE_1467237    	NODE_1328254    	NODE_1328255    	1.8127      	100.0000    	0.0200     	0.0000      	Open  ;
 PIPE_1467242    	NODE_1330942    	NODE_1346045    	91.3680     	100.0000    	0.0200     	0.0000      	Open  ;
 PIPE_1467249    	NODE_1336241    	NODE_1316375    	37.6196     	90.0000     	0.0200     	0.0000      	Open  ;
 PIPE_1467260    	NODE_1336762    	NODE_1336241    	14.6507     	90.0000     	0.0200     	0.0000      	Open  ;
 PIPE_1467269    	NODE_1321221    	NODE_1336247    	3.6758      	90.0000     	0.0200     	0.0000      	Open  ;
 PIPE_1467276    	NODE_1329447    	NODE_1321221    	16.6137     	90.0000     	0.0200     	0.0000      	Open  ;
 PIPE_1467281    	NODE_1329448    	NODE_1329447    	19.0243     	90.0000     	0.0200     	0.0000      	Open  ;
 PIPE_1467286    	NODE_1329449    	NODE_1329448    	1.0718      	90.0000     	0.0200     	0.0000      	Open  ;
 PIPE_1467292    	NODE_1321222    	NODE_1329449    	7.9011      	90.0000     	0.0200     	0.0000      	Open  ;
 PIPE_1467369    	NODE_1336247    	NODE_1329871    	25.3199     	90.0000     	0.0200     	0.0000      	Open  ;
 PIPE_1467370    	NODE_1329871    	NODE_1336762    	39.6166     	90.0000     	0.0200     	0.0000      	Open  ;
 PIPE_1467514    	NODE_1316373    	NODE_1328769    	0.3214      	100.0000    	0.0200     	0.0000      	Open  ;
 PIPE_1467750    	NODE_1319219    	NODE_1339779    	11.2620     	100.0000    	0.0200     	0.0000      	Open  ;
 PIPE_1467756    	NODE_1328253    	NODE_1319219    	18.1031     	100.0000    	0.0200     	0.0000      	Open  ;
 PIPE_1467768    	NODE_1319218    	NODE_1320284    	23.5380     	100.0000    	0.0200     	0.0000      	Open  ;
 PIPE_1467774    	NODE_1335796    	NODE_1319218    	20.3848     	100.0000    	0.0200     	0.0000      	Open  ;
 PIPE_1467780    	NODE_1328251    	NODE_1335796    	21.5507     	100.0000    	0.0200     	0.0000      	Open  ;
 PIPE_1467786    	NODE_1328250    	NODE_1328251    	4.2711      	100.0000    	0.0200     	0.0000      	Open  ;
 PIPE_1467792    	NODE_1319217    	NODE_1328250    	22.8409     	100.0000    	0.0200     	0.0000      	Open  ;
 PIPE_1467798    	NODE_1328249    	NODE_1319217    	16.0157     	100.0000    	0.0200     	0.0000      	Open  ;
 PIPE_1467805    	NODE_1328248    	NODE_1328249    	7.3416      	100.0000    	0.0200     	0.0000      	Open  ;
 PIPE_1467812    	NODE_1331553    	NODE_1328248    	16.1820     	100.0000    	0.0200     	0.0000      	Open  ;
 PIPE_1467818    	NODE_1323135    	NODE_1331553    	0.3608      	100.0000    	0.0200     	0.0000      	Open  ;
 PIPE_1467823    	NODE_1328770    	NODE_1322455    	12.2206     	100.0000    	0.0200     	0.0000      	Open  ;
 PIPE_1467829    	NODE_1322455    	NODE_1328247    	0.3122      	100.0000    	0.0200     	0.0000      	Open  ;
 PIPE_1467830    	NODE_1328247    	NODE_1323135    	21.9525     	100.0000    	0.0200     	0.0000      	Open  ;
 PIPE_1467841    	NODE_1328246    	NODE_1322933    	21.6964     	100.0000    	0.0200     	0.0000      	Open  ;
 PIPE_1467846    	NODE_1328245    	NODE_1328246    	7.3060      	100.0000    	0.0200     	0.0000      	Open  ;
 PIPE_1467852    	NODE_1328244    	NODE_1328245    	14.8218     	100.0000    	0.0200     	0.0000      	Open  ;
 PIPE_1467861    	NODE_1322932    	NODE_1328243    	3.7343      	100.0000    	0.0200     	0.0000      	Open  ;
 PIPE_1467862    	NODE_1328243    	NODE_1328244    	16.4989     	100.0000    	0.0200     	0.0000      	Open  ;
 PIPE_1467907    	NODE_1328242    	NODE_1328241    	1.8068      	100.0000    	0.0200     	0.0000      	Open  ;
 PIPE_1467908    	NODE_1328241    	NODE_1322932    	20.8452     	100.0000    	0.0200     	0.0000      	Open  ;
 PIPE_1467914    	NODE_1322931    	NODE_1328242    	15.6418     	100.0000    	0.0200     	0.0000      	Open  ;
 PIPE_1467919    	NODE_1328240    	NODE_1322931    	8.0199      	100.0000    	0.0200     	0.0000      	Open  ;
 PIPE_1467924    	NODE_1339788    	NODE_1328240    	8.5136      	100.0000    	0.0200     	0.0000      	Open  ;
 PIPE_1467928    	NODE_1320284    	NODE_1328252    	0.3742      	100.0000    	0.0200     	0.0000      	Open  ;
 PIPE_1467929    	NODE_1328252    	NODE_1328253    	22.8995     	100.0000    	0.0200     	0.0000      	Open  ;
 PIPE_1467935    	NODE_1339786    	NODE_1339788    	8.3278      	100.0000    	0.0200     	0.0000      	Open  ;
 PIPE_1467944    	NODE_1322403    	NODE_1339785    	2.7290      	100.0000    	0.0200     	0.0000      	Open  ;
 PIPE_1467945    	NODE_1339785    	NODE_1339786    	24.3754     	100.0000    	0.0200     	0.0000      	Open  ;
 PIPE_1467956    	NODE_1339783    	NODE_1322403    	21.3772     	100.0000    	0.0200     	0.0000      	Open  ;
 PIPE_1467962    	NODE_1322402    	NODE_1339784    	17.4375     	100.0000    	0.0200     	0.0000      	Open  ;
 PIPE_1467971    	NODE_1336748    	NODE_1339782    	18.4632     	100.0000    	0.0200     	0.0000      	Open  ;
 PIPE_1467972    	NODE_1339782    	NODE_1322402    	6.8150      	100.0000    	0.0200     	0.0000      	Open  ;
 PIPE_1467978    	NODE_1322453    	NODE_1336748    	8.2073      	100.0000    	0.0200     	0.0000      	Open  ;
 PIPE_1467983    	NODE_1322401    	NODE_1322453    	11.8969     	100.0000    	0.0200     	0.0000      	Open  ;
 PIPE_1467993    	NODE_1339781    	NODE_1339780    	4.0894      	100.0000    	0.0200     	0.0000      	Open  ;
 PIPE_1467994    	NODE_1339780    	NODE_1322401    	15.4628     	100.0000    	0.0200     	0.0000      	Open  ;
 PIPE_1468006    	NODE_1328764    	NODE_1328765    	2.3485      	100.0000    	0.0200     	0.0000      	Open  ;
 PIPE_1468017    	NODE_1328763    	NODE_1316370    	1.4066      	100.0000    	0.0200     	0.0000      	Open  ;
 PIPE_1468018    	NODE_1316370    	NODE_1328764    	26.2296     	100.0000    	0.0200     	0.0000      	Open  ;
 PIPE_1468025    	NODE_1336759    	NODE_1328763    	26.0657     	100.0000    	0.0200     	0.0000      	Open  ;
 PIPE_1468031    	NODE_1328762    	NODE_1336759    	2.8001      	100.0000    	0.0200     	0.0000      	Open  ;
 PIPE_1468041    	NODE_1316369    	NODE_1328761    	7.0056      	100.0000    	0.0200     	0.0000      	Open  ;
 PIPE_1468046    	NODE_1328760    	NODE_1316369    	22.1391     	100.0000    	0.0200     	0.0000      	Open  ;
 PIPE_1468055    	NODE_1328759    	NODE_1328758    	8.7472      	100.0000    	0.0200     	0.0000      	Open  ;
 PIPE_1468056    	NODE_1328758    	NODE_1328760    	17.3660     	100.0000    	0.0200     	0.0000      	Open  ;
 PIPE_1468063    	NODE_1316368    	NODE_1328759    	3.0393      	100.0000    	0.0200     	0.0000      	Open  ;
 PIPE_1468067    	NODE_1329872    	NODE_1328757    	2.7382      	100.0000    	0.0200     	0.0000      	Open  ;
 PIPE_1468068    	NODE_1328757    	NODE_1316368    	19.8376     	100.0000    	0.0200     	0.0000      	Open  ;
 PIPE_1468077    	NODE_1328756    	NODE_1328755    	15.1532     	100.0000    	0.0200     	0.0000      	Open  ;
 PIPE_1468083    	NODE_1328755    	NODE_1316367    	8.6582      	100.0000    	0.0200     	0.0000      	Open  ;
 PIPE_1468089    	NODE_1316367    	NODE_1328754    	11.7431     	100.0000    	0.0200     	0.0000      	Open  ;
 PIPE_1468095    	NODE_1328754    	NODE_1335802    	13.7040     	100.0000    	0.0200     	0.0000      	Open  ;
 PIPE_1468108    	NODE_1336421    	NODE_1320128    	9.5477      	100.0000    	0.0200     	0.0000      	Open  ;
 PIPE_1468114    	NODE_1320128    	NODE_1330996    	23.9471     	100.0000    	0.0200     	0.0000      	Open  ;
 PIPE_1468120    	NODE_1330996    	NODE_1328281    	3.0667      	100.0000    	0.0200     	0.0000      	Open  ;
 PIPE_1468132    	NODE_1328280    	NODE_1328279    	16.2618     	100.0000    	0.0200     	0.0000      	Open  ;
 PIPE_1468138    	NODE_1328279    	NODE_1319230    	9.8571      	100.0000    	0.0200     	0.0000      	Open  ;
 PIPE_1468145    	NODE_1319230    	NODE_1335797    	14.8257     	100.0000    	0.0200     	0.0000      	Open  ;
 PIPE_1468151    	NODE_1335797    	NODE_1328278    	6.9714      	100.0000    	0.0200     	0.0000      	Open  ;
 PIPE_1468157    	NODE_1328278    	NODE_1328277    	11.7287     	100.0000    	0.0200     	0.0000      	Open  ;
 PIPE_1468163    	NODE_1328277    	NODE_1319229    	11.5655     	100.0000    	0.0200     	0.0000      	Open  ;
 PIPE_1468169    	NODE_1319229    	NODE_1328276    	16.2305     	100.0000    	0.0200     	0.0000      	Open  ;
 PIPE_1468175    	NODE_1328276    	NODE_1328275    	12.2759     	100.0000    	0.0200     	0.0000      	Open  ;
 PIPE_1468187    	NODE_1328274    	NODE_1319228    	2.6919      	100.0000    	0.0200     	0.0000      	Open  ;
 PIPE_1468194    	NODE_1319228    	NODE_1338134    	15.1439     	100.0000    	0.0200     	0.0000      	Open  ;
 PIPE_1468200    	NODE_1338134    	NODE_1328273    	5.6889      	100.0000    	0.0200     	0.0000      	Open  ;
 PIPE_1468212    	NODE_1328273    	NODE_1319227    	19.0836     	100.0000    	0.0200     	0.0000      	Open  ;
 PIPE_1468213    	NODE_1319227    	NODE_1328272    	6.8408      	100.0000    	0.0200     	0.0000      	Open  ;
 PIPE_1468218    	NODE_1328272    	NODE_1328271    	37.2808     	100.0000    	0.0200     	0.0000      	Open  ;
 PIPE_1468225    	NODE_1328271    	NODE_1328270    	23.4897     	100.0000    	0.0200     	0.0000      	Open  ;
 PIPE_1468231    	NODE_1328270    	NODE_1328269    	14.2419     	100.0000    	0.0200     	0.0000      	Open  ;
 PIPE_1468237    	NODE_1328269    	NODE_1319226    	21.3120     	100.0000    	0.0200     	0.0000      	Open  ;
 PIPE_1468243    	NODE_1319226    	NODE_1328268    	2.4234      	100.0000    	0.0200     	0.0000      	Open  ;
 PIPE_1468255    	NODE_1328267    	NODE_1328266    	11.3415     	100.0000    	0.0200     	0.0000      	Open  ;
 PIPE_1468267    	NODE_1328266    	NODE_1328265    	21.8683     	100.0000    	0.0200     	0.0000      	Open  ;
 PIPE_1468268    	NODE_1328265    	NODE_1319225    	3.6804      	100.0000    	0.0200     	0.0000      	Open  ;
 PIPE_1468273    	NODE_1319225    	NODE_1328264    	18.1915     	100.0000    	0.0200     	0.0000      	Open  ;
 PIPE_1468274    	NODE_1328264    	NODE_1316373    	8.6238      	100.0000    	0.0200     	0.0000      	Open  ;
 PIPE_1468279    	NODE_1335802    	NODE_1328768    	11.1421     	100.0000    	0.0200     	0.0000      	Open  ;
 PIPE_1468280    	NODE_1328768    	NODE_1336421    	3.3952      	100.0000    	0.0200     	0.0000      	Open  ;
 PIPE_1468286    	NODE_1316372    	NODE_1346070    	8.0755      	100.0000    	0.0200     	0.0000      	Open  ;
 PIPE_1468289    	NODE_1328761    	NODE_1328766    	20.2883     	100.0000    	0.0200     	0.0000      	Open  ;
 PIPE_1468290    	NODE_1328766    	NODE_1328762    	3.4121      	100.0000    	0.0200     	0.0000      	Open  ;
 PIPE_1468295    	NODE_1319221    	NODE_1336244    	8.9195      	100.0000    	0.0200     	0.0000      	Open  ;
 PIPE_1468296    	NODE_1336244    	NODE_1328260    	14.1815     	100.0000    	0.0200     	0.0000      	Open  ;
 PIPE_1468301    	NODE_1346046    	NODE_1331554    	0.1012      	100.0000    	0.0200     	0.0000      	Open  ;
 PIPE_1468307    	NODE_1319224    	NODE_1316372    	21.9629     	100.0000    	0.0200     	0.0000      	Open  ;
 PIPE_1468330    	NODE_1328263    	NODE_1330942    	14.2225     	100.0000    	0.0200     	0.0000      	Open  ;
 PIPE_1484080    	NODE_1339784    	NODE_1341975    	2.6116      	100.0000    	0.0200     	0.0000      	Open  ;
 PIPE_1484081    	NODE_1341975    	NODE_1339783    	2.0860      	100.0000    	0.0200     	0.0000      	Open  ;
 PIPE_1484087    	NODE_1341974    	NODE_1319224    	83.5672     	100.0000    	0.0200     	0.0000      	Open  ;
 PIPE_1486786    	NODE_1328765    	NODE_1337087    	16.9810     	100.0000    	0.0200     	0.0000      	Open  ;
 PIPE_1486865    	NODE_1331554    	NODE_1336509    	2.2783      	100.0000    	0.0200     	0.0000      	Open  ;
 PIPE_1486866    	NODE_1336509    	NODE_1328254    	3.1982      	100.0000    	0.0200     	0.0000      	Open  ;
 PIPE_1486871    	NODE_1328281    	NODE_1336508    	14.4211     	100.0000    	0.0200     	0.0000      	Open  ;
 PIPE_1486872    	NODE_1336508    	NODE_1328280    	7.9777      	100.0000    	0.0200     	0.0000      	Open  ;
 PIPE_1486879    	NODE_1336507    	NODE_1329870    	1.4009      	90.0000     	0.0200     	0.0000      	Open  ;
 PIPE_1487189    	NODE_1336499    	NODE_1328263    	73.2892     	100.0000    	0.0200     	0.0000      	Open  ;
 PIPE_1487199    	NODE_1329870    	NODE_1318201    	64.7234     	90.0000     	0.0200     	0.0000      	Open  ;
 PIPE_1487200    	NODE_1318201    	NODE_1321222    	36.1935     	90.0000     	0.0200     	0.0000      	Open  ;
 PIPE_1487216    	NODE_1328275    	NODE_1317046    	9.2872      	100.0000    	0.0200     	0.0000      	Open  ;
 PIPE_1487217    	NODE_1317046    	NODE_1328274    	26.0610     	100.0000    	0.0200     	0.0000      	Open  ;
 PIPE_1487222    	NODE_1328268    	NODE_1319665    	14.0103     	100.0000    	0.0200     	0.0000      	Open  ;
 PIPE_1487223    	NODE_1319665    	NODE_1328267    	4.8385      	100.0000    	0.0200     	0.0000      	Open  ;
 PIPE_1487243    	NODE_1322933    	NODE_1323019    	1.7810      	100.0000    	0.0200     	0.0000      	Open  ;
 PIPE_1487244    	NODE_1323019    	NODE_1328770    	10.1043     	100.0000    	0.0200     	0.0000      	Open  ;
 PIPE_2865671    	NODE_1316375    	NODE_10325_1    	38.0193     	90.0000     	0.0200     	0.0000      	Open  ;
 PIPE_2865672    	NODE_10325      	NODE_1329872    	0.3316      	90.0000     	0.0200     	0.0000      	Open  ;
 PIPE_2865840    	NODE_1346075    	NODE_9957_1     	0.1500      	100.0000    	0.0200     	0.0000      	Open  ;
 PIPE_2865841    	NODE_9957       	NODE_1336499    	2.2131      	100.0000    	0.0200     	0.0000      	Open  ;
 PIPE_2865846    	NODE_1319223    	NODE_10103_1    	18.7451     	100.0000    	0.0200     	0.0000      	Open  ;
 PIPE_2865847    	NODE_10103      	NODE_1346045    	0.2996      	100.0000    	0.0200     	0.0000      	Open  ;
 PIPE_2865852    	NODE_1346068    	NODE_10104_1    	0.4271      	100.0000    	0.0200     	0.0000      	Open  ;
 PIPE_2865853    	NODE_10104      	NODE_1341974    	41.2351     	100.0000    	0.0200     	0.0000      	Open  ;
 PIPE_2865859    	NODE_1346068    	NODE_10105_1    	0.2143      	100.0000    	0.0200     	0.0000      	Open  ;
 PIPE_2865860    	NODE_10105      	NODE_1339781    	22.2682     	100.0000    	0.0200     	0.0000      	Open  ;
 PIPE_2865866    	NODE_1346046    	NODE_10106_1    	0.1222      	90.0000     	0.0200     	0.0000      	Open  ;
 PIPE_2865867    	NODE_10106      	NODE_1336507    	135.8390    	90.0000     	0.0200     	0.0000      	Open  ;
 PIPE_2865886    	NODE_1328769    	NODE_10109_1    	0.1654      	90.0000     	0.0200     	0.0000      	Open  ;
 PIPE_2865887    	NODE_10109      	NODE_3998455    	207.2188    	90.0000     	0.0200     	0.0000      	Open  ;
 PIPE_2865906    	NODE_1346070    	NODE_10112_1    	0.3281      	100.0000    	0.0200     	0.0000      	Open  ;
 PIPE_2865907    	NODE_10112      	NODE_1328756    	27.0628     	100.0000    	0.0200     	0.0000      	Open  ;
 PIPE_2865912    	NODE_1337087    	NODE_10113_1    	25.5566     	100.0000    	0.0200     	0.0000      	Open  ;
 PIPE_2865913    	NODE_10113      	NODE_1346070    	0.3281      	100.0000    	0.0200     	0.0000      	Open  ;

[PUMPS]
;ID             	Node1           	Node2           	Parameters

[VALVES]
;ID             	Node1           	Node2           	Diameter    	Type	Setting     	MinorLoss   
 VALVE_10105     	NODE_10105      	NODE_10105_1    	100.0000    	ISO 	0.0000      	0.0000      
 VALVE_10109     	NODE_10109      	NODE_10109_1    	100.0000    	ISO 	0.0000      	0.0000      
 VALVE_10104     	NODE_10104      	NODE_10104_1    	100.0000    	ISO 	0.0000      	0.0000      
 VALVE_10325     	NODE_10325      	NODE_10325_1    	100.0000    	ISO 	0.0000      	0.0000      
 VALVE_9957      	NODE_9957       	NODE_9957_1     	100.0000    	ISO 	0.0000      	0.0000      
 VALVE_10112     	NODE_10112      	NODE_10112_1    	100.0000    	ISO 	0.0000      	0.0000      
 VALVE_10106     	NODE_10106      	NODE_10106_1    	100.0000    	ISO 	0.0000      	0.0000      
 VALVE_10113     	NODE_10113      	NODE_10113_1    	100.0000    	ISO 	0.0000      	0.0000      
 VALVE_10103     	NODE_10103      	NODE_10103_1    	100.0000    	ISO 	0.0000      	0.0000      

[TAGS]

[DEMANDS]
;Junction       	Demand      	Pattern         	Category

[STATUS]
;ID              	Status/Setting

[PATTERNS]
;ID             	Multipliers

[CURVES]
;ID             	X-Value     	Y-Value

[CONTROLS]

[RULES]

[ENERGY]

[EMITTERS]

[QUALITY]

[SOURCES]

[REACTIONS]

[MIXING]

[TIMES]

[REPORT]

[OPTIONS]
 Units              	LPS
 Headloss           	C-F
 Specific Gravity   	1.0
 Viscosity          	1.0
 Trials             	40
 Accuracy           	0.001
 CHECKFREQ          	2
 MAXCHECK           	10
 DAMPLIMIT          	0
 Unbalanced         	Continue 10
 Pattern            	1
 Demand Multiplier  	1.0
 Emitter Exponent   	0.5
 Quality            	Chlorine mg/L
 Diffusivity        	1.0
 Tolerance          	0.01

[COORDINATES]
;Node           	X-Coord         	Y-Coord
 NODE_1328769    	259874.2245     	488591.6140     
 NODE_1323019    	259753.0610     	488318.5827     
 NODE_1336507    	259250.8765     	487978.6006     
 NODE_1328263    	259539.7542     	488079.7377     
 NODE_1336244    	259398.4702     	488126.4848     
 NODE_1328766    	259335.2925     	488284.8863     
 NODE_1328267    	259816.7666     	488563.3643     
 NODE_1328274    	259667.4962     	488488.5143     