[TITLE]
Converted from Epanet to Staci, case name: ohermes.spr


[JUNCTIONS]
;ID              	Elev        	Demand      	Pattern         
 NODE_1333520    	437.0165    	0.000000    	                	;
 NODE_1334219    	469.5501    	0.000000    	                	;
 NODE_1334720    	445.4146    	0.000000    	                	;
 NODE_1334738    	455.2699    	0.000000    	                	;
 NODE_1334008    	465.0871    	0.000000    	                	;
 NODE_1334004    	445.6599    	0.000000    	                	;
 NODE_1336316    	464.9603    	0.003750    	                	;
 NODE_1316760    	437.1365    	0.000000    	                	;
 NODE_1331811    	465.6979    	0.009167    	                	;
 NODE_4778       	445.8314    	0.000000    	                	;
 NODE_4778_1     	445.7380    	0.000000    	                	;
 NODE_1346900    	500.8883    	0.000000    	                	;
 NODE_4739       	445.5672    	0.000000    	                	;
 NODE_4739_1     	445.4739    	0.000000    	                	;
 NODE_3968875    	472.4136    	0.000000    	                	;
 NODE_1345189    	445.8478    	0.000000    	                	;
 NODE_1347148    	483.7014    	0.000000    	                	;
 NODE_1347201    	445.5748    	0.000000    	                	;
 NODE_1347125    	501.0544    	0.000000    	                	;
 NODE_4727       	483.6215    	0.000000    	                	;
 NODE_4727_1     	483.7395    	0.000000    	                	;
 NODE_3968560    	501.2418    	0.000000    	                	;
 NODE_1347180    	445.9476    	0.000000    	                	;
 NODE_1347149    	483.6416    	0.000000    	                	;
 NODE_651        	483.8211    	0.083333    	                	;
 NODE_4731       	465.0230    	0.000000    	                	;
 NODE_4731_1     	464.7600    	0.000000    	                	;
 NODE_4741       	446.0387    	0.000000    	                	;
 NODE_4741_1     	445.9454    	0.000000    	                	;

[RESERVOIRS]
;ID              	Head        	Pattern         
 PRESS_11294902  	534.7038    	                

[TANKS]
;ID             	Elevation   	InitLevel   	MinLevel    	MaxLevel    	Diameter    	MinVol      	VolCurve
 POOL_217        	465.6600    	0.8400      	0.0000      	1000.0000   	3.2883      	0.0000      	                	
 POOL_218        	507.9800    	1.6100      	0.0000      	1000.0000   	6.4472      	0.0000      	                	

[PIPES]
;ID             	Node1           	Node2           	Length      	Diameter    	Roughness   	MinorLoss   	Status
 PIPE_784352     	NODE_1345189    	NODE_1347180    	0.9095      	110.0000    	0.0200     	0.0000      	Open  ;
 PIPE_784462     	POOL_218        	NODE_3968875    	346.7942    	110.0000    	0.0200     	0.0000      	Open  ;
 PIPE_784761     	NODE_1346900    	NODE_3968560    	11.5134     	150.0000    	0.0200     	0.0000      	Open  ;
 PIPE_1368457    	NODE_1347180    	NODE_1334720    	9.7758      	110.0000    	0.0200     	0.0000      	Open  ;
 PIPE_1386556    	NODE_1334738    	NODE_1336316    	42.6241     	110.0000    	0.0200     	0.0000      	Open  ;
 PIPE_1387586    	NODE_1347201    	NODE_1334004    	0.4754      	110.0000    	0.0200     	0.0000      	Open  ;
 PIPE_1387587    	NODE_1334004    	NODE_1334219    	120.2252    	110.0000    	0.0200     	0.0000      	Open  ;
 PIPE_1392134    	NODE_1334219    	NODE_1331811    	84.9582     	110.0000    	0.0200     	0.0000      	Open  ;
 PIPE_1392135    	NODE_1331811    	NODE_1334008    	6.0043      	110.0000    	0.0200     	0.0000      	Open  ;
 PIPE_2813484    	NODE_1345189    	NODE_4778_1     	0.1500      	110.0000    	0.0200     	0.0000      	Open  ;
 PIPE_2813485    	NODE_4778       	NODE_1347149    	444.1729    	110.0000    	0.0200     	0.0000      	Open  ;
 PIPE_2813517    	NODE_1347125    	NODE_4741_1     	340.7590    	110.0000    	0.0200     	0.0000      	Open  ;
 PIPE_2813518    	NODE_4741       	NODE_1347180    	0.3962      	110.0000    	0.0200     	0.0000      	Open  ;
 PIPE_2813529    	NODE_1334720    	NODE_4739_1     	0.8030      	110.0000    	0.0200     	0.0000      	Open  ;
 PIPE_2813530    	NODE_4739       	NODE_1347201    	0.0398      	110.0000    	0.0200     	0.0000      	Open  ;
 PIPE_2813628    	NODE_1334008    	NODE_4731_1     	0.2972      	110.0000    	0.0200     	0.0000      	Open  ;
 PIPE_2813629    	NODE_4731       	NODE_1336316    	0.2973      	110.0000    	0.0200     	0.0000      	Open  ;
 PIPE_2813832    	NODE_1347148    	NODE_4727_1     	1.0204      	110.0000    	0.0200     	0.0000      	Open  ;
 PIPE_2813833    	NODE_4727       	NODE_1347149    	0.4455      	110.0000    	0.0200     	0.0000      	Open  ;
 PIPE_3851533    	POOL_218        	NODE_1347125    	4.1654      	110.0000    	0.0200     	0.0000      	Open  ;
 PIPE_3851541    	PRESS_11294902  	NODE_3968875    	5.8251      	110.0000    	0.0200     	0.0000      	Open  ;
 PIPE_3851560    	POOL_218        	NODE_1346900    	3.9132      	150.0000    	0.0200     	0.0000      	Open  ;
 PIPE_6274802    	NODE_1333520    	NODE_1316760    	0.4443      	110.0000    	0.0200     	0.0000      	Open  ;
 PIPE_6274803    	NODE_1316760    	NODE_1334738    	69.3002     	110.0000    	0.0200     	0.0000      	Open  ;
 PIPE_11294925   	POOL_217        	NODE_651        	6.8455      	110.0000    	0.0200     	0.0000      	Open  ;
 PIPE_11294931   	POOL_217        	NODE_1347148    	6.8500      	110.0000    	0.0200     	0.0000      	Open  ;

[PUMPS]
;ID             	Node1           	Node2           	Parameters

[VALVES]
;ID             	Node1           	Node2           	Diameter    	Type	Setting     	MinorLoss   
 VALVE_4778      	NODE_4778       	NODE_4778_1     	100.0000    	ISO 	0.0000      	0.0000      
 VALVE_4727      	NODE_4727       	NODE_4727_1     	100.0000    	ISO 	0.0000      	0.0000      
 VALVE_4731      	NODE_4731       	NODE_4731_1     	100.0000    	ISO 	0.0000      	0.0000      
 VALVE_4739      	NODE_4739       	NODE_4739_1     	100.0000    	ISO 	0.0000      	0.0000      
 VALVE_4741      	NODE_4741       	NODE_4741_1     	100.0000    	ISO 	0.0000      	0.0000      

[TAGS]

[DEMANDS]
;Junction       	Demand      	Pattern         	Category

[STATUS]
;ID              	Status/Setting

[PATTERNS]
;ID             	Multipliers

[CURVES]
;ID             	X-Value     	Y-Value

[CONTROLS]

[RULES]

[ENERGY]

[EMITTERS]

[QUALITY]

[SOURCES]

[REACTIONS]

[MIXING]

[TIMES]

[REPORT]

[OPTIONS]
 Units              	LPS
 Headloss           	C-F
 Specific Gravity   	1.0
 Viscosity          	1.0
 Trials             	40
 Accuracy           	0.001
 CHECKFREQ          	2
 MAXCHECK           	10
 DAMPLIMIT          	0
 Unbalanced         	Continue 10
 Pattern            	1
 Demand Multiplier  	1.0
 Emitter Exponent   	0.5
 Quality            	Chlorine mg/L
 Diffusivity        	1.0
 Tolerance          	0.01

[COORDINATES]
;Node           	X-Coord         	Y-Coord
 NODE_1333520    	260251.3100     	456915.2000     
 NODE_1334219    	260151.1300     	456804.5200     
 NODE_1334720    	260175.5066     	456916.1669     
 NODE_1334738    	260227.7589     	456852.3281     
 NODE_1334008    	260240.3327     	456811.6130     
 NODE_1334004    	260175.9300     	456914.9200     
 NODE_1336316    	260240.8900     	456811.8200     
 NODE_1316760    	260251.1187     	456914.7990     
 NODE_1331811    	260234.7312     	456809.4506     
 NODE_4778       	260171.2312     	456924.5857     
 NODE_4778_1     	260173.2312     	456924.5857     
 NODE_1346900    	260121.0500     	457252.8400     
 POOL_217        	259872.3403     	456770.0456     
 NODE_4739       	260175.7385     	456915.3981     
 NODE_4739_1     	260177.7385     	456915.3981     
 NODE_3968875    	260054.6800     	457568.8400     
 NODE_1345189    	260171.3457     	456924.6826     
 NODE_1347148    	259879.1100     	456769.0000     
 NODE_1347201    	260175.7500     	456915.3600     
 NODE_1347125    	260117.7300     	457252.5000     
 NODE_4727       	259880.0400     	456769.4200     
 NODE_4727_1     	259882.0400     	456769.4200     
 PRESS_11294902  	260060.0915     	457566.6844     
 NODE_3968560    	260125.1200     	457242.0700     
 NODE_1347180    	260172.0400     	456925.2700     
 NODE_1347149    	259880.4800     	456769.4900     
 POOL_218        	260119.3200     	457256.3500     
 NODE_651        	259878.8000     	456767.7800     
 NODE_4731       	260240.6100     	456811.7200     
 NODE_4731_1     	260242.6100     	456811.7200     
 NODE_4741       	260171.9700     	456925.6600     
 NODE_4741_1     	260173.9700     	456925.6600     

[VERTICES]

[LABELS]

[BACKDROP]

[END]
