[TITLE]
Converted from Epanet to Staci, case name: pozsonyiut.spr


[JUNCTIONS]
;ID              	Elev        	Demand      	Pattern         
 NODE_1335249    	147.7792    	0.000000    	                	;
 NODE_1334333    	146.3593    	0.000000    	                	;
 NODE_1315342    	115.6732    	0.020000    	                	;
 NODE_1332399    	135.8952    	0.010000    	                	;
 NODE_1332606    	151.8734    	0.000833    	                	;
 NODE_1332604    	148.0152    	0.002500    	                	;
 NODE_1317811    	144.7559    	0.010000    	                	;
 NODE_1333049    	144.4347    	0.000000    	                	;
 NODE_1317626    	143.3989    	0.000000    	                	;
 NODE_1317628    	146.1146    	0.004583    	                	;
 NODE_1333067    	146.5179    	0.000000    	                	;
 NODE_1334289    	148.1092    	0.004583    	                	;
 NODE_1319925    	135.6021    	0.000000    	                	;
 NODE_1319371    	131.6082    	0.000000    	                	;
 NODE_1331852    	141.4589    	0.000000    	                	;
 NODE_1334999    	149.5944    	0.002083    	                	;
 NODE_1318721    	148.7044    	0.004583    	                	;
 NODE_1332603    	147.2798    	0.003750    	                	;
 NODE_1338057    	141.9541    	0.000000    	                	;
 NODE_1332588    	127.5020    	0.004583    	                	;
 NODE_1317803    	126.8361    	0.005000    	                	;
 NODE_1333129    	117.2898    	0.000833    	                	;
 NODE_1318722    	155.6844    	0.002083    	                	;
 NODE_1333109    	149.4476    	0.003750    	                	;
 NODE_1333156    	132.6538    	0.000000    	                	;
 NODE_1335359    	122.4022    	0.000000    	                	;
 NODE_1317372    	146.8137    	0.000000    	                	;
 NODE_1315977    	115.2978    	0.000000    	                	;
 NODE_1322011    	141.6451    	0.003333    	                	;
 NODE_1338716    	141.6581    	0.004167    	                	;
 NODE_1318731    	132.9085    	0.014583    	                	;
 NODE_1332383    	158.8785    	0.000000    	                	;
 NODE_1318725    	122.0002    	0.006250    	                	;
 NODE_1333062    	146.4557    	0.000000    	                	;
 NODE_1316817    	134.0555    	0.013750    	                	;
 NODE_1335349    	143.8743    	0.000000    	                	;
 NODE_1317812    	146.5256    	0.000000    	                	;
 NODE_1333606    	140.3574    	0.009167    	                	;
 NODE_1334288    	148.6963    	0.005000    	                	;
 NODE_1340825    	141.1657    	0.002500    	                	;
 NODE_1332759    	136.9503    	0.007917    	                	;
 NODE_1333107    	145.7809    	0.001667    	                	;
 NODE_1332396    	128.5636    	0.006250    	                	;
 NODE_1331864    	140.4145    	0.007500    	                	;
 NODE_1317638    	149.6221    	0.004167    	                	;
 NODE_1331887    	129.7003    	0.000417    	                	;
 NODE_1338808    	129.0861    	0.002083    	                	;
 NODE_1315980    	144.5199    	0.003333    	                	;
 NODE_1333605    	146.5127    	0.000000    	                	;
 NODE_1316816    	136.3522    	0.005000    	                	;
 NODE_1331224    	145.6689    	0.000000    	                	;
 NODE_1332395    	127.0121    	0.000833    	                	;
 NODE_1332573    	128.4227    	0.012500    	                	;
 NODE_1332571    	127.0724    	0.011250    	                	;
 NODE_1317800    	127.0117    	0.000417    	                	;
 NODE_1334277    	141.4736    	0.010417    	                	;
 NODE_1315981    	116.9932    	0.000000    	                	;
 NODE_1334139    	141.0969    	0.000000    	                	;
 NODE_1335943    	126.7907    	0.000000    	                	;
 NODE_1333048    	145.5863    	0.000000    	                	;
 NODE_1317625    	141.1484    	0.000000    	                	;
 NODE_1333054    	144.9223    	0.000000    	                	;
 NODE_1333066    	146.0303    	0.000000    	                	;
 NODE_1333069    	147.6950    	0.000000    	                	;
 NODE_1311872    	146.5174    	0.002917    	                	;
 NODE_1316879    	146.9434    	0.016250    	                	;
 NODE_1333038    	147.7138    	0.000000    	                	;
 NODE_1333041    	146.7667    	0.000000    	                	;
 NODE_1332402    	120.2760    	0.000000    	                	;
 NODE_1318760    	116.1041    	0.001250    	                	;
 NODE_1334305    	129.7929    	0.010417    	                	;
 NODE_1334300    	133.9830    	0.004167    	                	;
 NODE_1332380    	122.1827    	0.002500    	                	;
 NODE_1340811    	133.6568    	0.001250    	                	;
 NODE_1331865    	140.2965    	0.003333    	                	;
 NODE_1338495    	141.1084    	0.005417    	                	;
 NODE_1334278    	141.1537    	0.005000    	                	;
 NODE_1318920    	126.1683    	0.005417    	                	;
 NODE_1333065    	145.6679    	0.005833    	                	;
 NODE_1317014    	147.7534    	0.000000    	                	;
 NODE_1340823    	141.5300    	0.002083    	                	;
 NODE_1340821    	146.5000    	0.011250    	                	;
 NODE_1319926    	138.9298    	0.001667    	                	;
 NODE_1321186    	141.2018    	0.004167    	                	;
 NODE_1323096    	140.5946    	0.009167    	                	;
 NODE_1332602    	145.6993    	0.005000    	                	;
 NODE_1332594    	134.0597    	0.000417    	                	;
 NODE_1332565    	150.8401    	0.008333    	                	;
 NODE_1331675    	143.0088    	0.004167    	                	;
 NODE_1333150    	131.6246    	0.005000    	                	;
 NODE_1340813    	135.9124    	0.005417    	                	;
 NODE_1332580    	128.9608    	0.003333    	                	;
 NODE_1333119    	119.8549    	0.000000    	                	;
 NODE_1338498    	149.5703    	0.005417    	                	;
 NODE_1315976    	149.0767    	0.004167    	                	;
 NODE_1332948    	138.1261    	0.000000    	                	;
 NODE_1335002    	131.7326    	0.003750    	                	;
 NODE_1318729    	126.6834    	0.026667    	                	;
 NODE_1317624    	145.0636    	0.000000    	                	;
 NODE_1318047    	144.6738    	0.000000    	                	;
 NODE_1334303    	136.5975    	0.002500    	                	;
 NODE_1322528    	114.6754    	0.000000    	                	;
 NODE_1334805    	132.2653    	0.001667    	                	;
 NODE_1333644    	126.2597    	0.005833    	                	;
 NODE_1336790    	146.0217    	0.000000    	                	;
 NODE_1314427    	140.8379    	0.000000    	                	;
 NODE_1333042    	146.5193    	0.000000    	                	;
 NODE_1332761    	149.4417    	0.006667    	                	;
 NODE_1333140    	129.5128    	0.000000    	                	;
 NODE_1332522    	148.0961    	0.000000    	                	;
 NODE_1333640    	126.7889    	0.000000    	                	;
 NODE_1317373    	145.8978    	0.000000    	                	;
 NODE_1338542    	141.9074    	0.007083    	                	;
 NODE_1319370    	147.0437    	0.006250    	                	;
 NODE_1332599    	144.0028    	0.000000    	                	;
 NODE_1332597    	139.8412    	0.003333    	                	;
 NODE_1319069    	127.5778    	0.000000    	                	;
 NODE_1333142    	131.6217    	0.007917    	                	;
 NODE_1316811    	142.0712    	0.006250    	                	;
 NODE_1333114    	123.0243    	0.005833    	                	;
 NODE_1335123    	147.9018    	0.000000    	                	;
 NODE_1332519    	149.2392    	0.000000    	                	;
 NODE_1316499    	130.7591    	0.000000    	                	;
 NODE_1322222    	150.0222    	0.000000    	                	;
 NODE_1332944    	117.3426    	0.000000    	                	;
 NODE_1315978    	145.4235    	0.002917    	                	;
 NODE_1334140    	128.7349    	0.000000    	                	;
 NODE_1333051    	142.1748    	0.000000    	                	;
 NODE_1333063    	144.4322    	0.000000    	                	;
 NODE_1333064    	144.4468    	0.000000    	                	;
 NODE_1317013    	147.8207    	0.000000    	                	;
 NODE_1317620    	147.7701    	0.003333    	                	;
 NODE_1332375    	135.4939    	0.001667    	                	;
 NODE_1319377    	133.1766    	0.002083    	                	;
 NODE_1332757    	131.5869    	0.004167    	                	;
 NODE_1332745    	134.6894    	0.000000    	                	;
 NODE_6270800    	136.6653    	0.012500    	                	;
 NODE_1316090    	147.5787    	0.000000    	                	;
 NODE_1318756    	127.8564    	0.004583    	                	;
 NODE_1320617    	127.6656    	0.008333    	                	;
 NODE_1332584    	126.1669    	0.018333    	                	;
 NODE_1332582    	129.1648    	0.003750    	                	;
 NODE_1331853    	141.5510    	0.003750    	                	;
 NODE_1334284    	145.8083    	0.009167    	                	;
 NODE_1333127    	116.3514    	0.000000    	                	;
 NODE_1316927    	140.8354    	0.002917    	                	;
 NODE_1316926    	138.7654    	0.000000    	                	;
 NODE_1334275    	143.2362    	0.007917    	                	;
 NODE_1334273    	150.2188    	0.001667    	                	;
 NODE_1334141    	149.2999    	0.000000    	                	;
 NODE_1319930    	141.5473    	0.000833    	                	;
 NODE_1333110    	150.4080    	0.000000    	                	;
 NODE_1332520    	148.7668    	0.000000    	                	;
 NODE_1332526    	147.6956    	0.000000    	                	;
 NODE_1333043    	146.4523    	0.000000    	                	;
 NODE_1315680    	141.0054    	0.002500    	                	;
 NODE_1334297    	136.6493    	0.000833    	                	;
 NODE_1334292    	143.4255    	0.002500    	                	;
 NODE_1340810    	133.8342    	0.000000    	                	;
 NODE_1317813    	150.6310    	0.000417    	                	;
 NODE_1333120    	120.2165    	0.000833    	                	;
 NODE_1337366    	150.9012    	0.003333    	                	;
 NODE_1333111    	153.1815    	0.000417    	                	;
 NODE_1316345    	142.2755    	2.306667    	                	;
 NODE_1315341    	128.1407    	0.003333    	                	;
 NODE_1317627    	145.7089    	0.000000    	                	;
 NODE_1337379    	122.4985    	0.009167    	                	;
 NODE_1332593    	134.1299    	0.001250    	                	;
 NODE_1317805    	126.2420    	0.003333    	                	;
 NODE_1337408    	157.7822    	0.000000    	                	;
 NODE_1318909    	144.5620    	0.000000    	                	;
 NODE_1333645    	126.3182    	0.006667    	                	;
 NODE_1335732    	141.6599    	0.002500    	                	;
 NODE_1333792    	116.8869    	0.001250    	                	;
 NODE_1331866    	145.5617    	0.004167    	                	;
 NODE_1333630    	126.1027    	0.000000    	                	;
 NODE_1333643    	126.1640    	0.007917    	                	;
 NODE_1319266    	140.6084    	0.000000    	                	;
 NODE_1336786    	142.7606    	0.000000    	                	;
 NODE_1338039    	145.0862    	0.000000    	                	;
 NODE_1332772    	131.7072    	0.003750    	                	;
 NODE_1338062    	116.2500    	0.000833    	                	;
 NODE_1333124    	122.7184    	0.001250    	                	;
 NODE_1336788    	148.9846    	0.000000    	                	;
 NODE_1315675    	116.0630    	0.000000    	                	;
 NODE_1317909    	145.8060    	0.000000    	                	;
 NODE_1318048    	146.7659    	0.001667    	                	;
 NODE_1319084    	128.7811    	0.000000    	                	;
 NODE_1334302    	134.0320    	0.000833    	                	;
 NODE_1334298    	136.3096    	0.004167    	                	;
 NODE_1334291    	145.6983    	0.003750    	                	;
 NODE_1340838    	142.7900    	0.002500    	                	;
 NODE_1340817    	146.5188    	0.016250    	                	;
 NODE_1331892    	135.9655    	0.000417    	                	;
 NODE_1332752    	130.4004    	0.000000    	                	;
 NODE_1332601    	144.7384    	0.007500    	                	;
 NODE_1331863    	140.8230    	0.006250    	                	;
 NODE_1319075    	122.2275    	0.007500    	                	;
 NODE_1316810    	141.1596    	0.000000    	                	;
 NODE_1334279    	141.1581    	0.002917    	                	;
 NODE_1316808    	142.0148    	0.002083    	                	;
 NODE_1333121    	120.5907    	0.008333    	                	;
 NODE_1331162    	134.8066    	0.002083    	                	;
 NODE_1335001    	149.8527    	0.000000    	                	;
 NODE_1317012    	148.4418    	0.000000    	                	;
 NODE_1333642    	126.0958    	0.002083    	                	;
 NODE_1332951    	115.8334    	0.000000    	                	;
 NODE_1335361    	158.0096    	0.000000    	                	;
 NODE_1317015    	149.1092    	0.000000    	                	;
 NODE_1338082    	144.2347    	0.000000    	                	;
 NODE_1334304    	136.9967    	0.006250    	                	;
 NODE_1340819    	147.5121    	0.001667    	                	;
 NODE_1317808    	133.8969    	0.004583    	                	;
 NODE_1332587    	125.4244    	0.008333    	                	;
 NODE_1332576    	126.2053    	0.000417    	                	;
 NODE_1332064    	135.7754    	0.000000    	                	;
 NODE_1336182    	115.3885    	0.002917    	                	;
 NODE_1332221    	119.1352    	0.000000    	                	;
 NODE_1335347    	140.5700    	0.000000    	                	;
 NODE_1336791    	147.6953    	0.000000    	                	;
 NODE_1322761    	147.8692    	0.000000    	                	;
 NODE_1333044    	145.2550    	0.004583    	                	;
 NODE_1332397    	132.2100    	0.002500    	                	;
 NODE_1332393    	134.0477    	0.000000    	                	;
 NODE_1333058    	145.3986    	0.000000    	                	;
 NODE_1333047    	147.0465    	0.000000    	                	;
 NODE_1319928    	147.4576    	0.002083    	                	;
 NODE_1332598    	141.7886    	0.006667    	                	;
 NODE_1332575    	126.8046    	0.000000    	                	;
 NODE_1334282    	141.9399    	0.005417    	                	;
 NODE_1333123    	121.3522    	0.004167    	                	;
 NODE_1316880    	146.4639    	0.000000    	                	;
 NODE_1333046    	142.9046    	0.003750    	                	;
 NODE_1333610    	146.9381    	0.004583    	                	;
 NODE_1334290    	147.0733    	0.007917    	                	;
 NODE_1334283    	143.4080    	0.010833    	                	;
 NODE_1332067    	142.6341    	0.000000    	                	;
 NODE_6265514    	141.6114    	0.002917    	                	;
 NODE_1333053    	143.3245    	0.000000    	                	;
 NODE_1317621    	147.3499    	0.000000    	                	;
 NODE_1340824    	141.0638    	0.007083    	                	;
 NODE_1316089    	139.8143    	0.007917    	                	;
 NODE_1333143    	132.3972    	0.006250    	                	;
 NODE_1332521    	148.3104    	0.000000    	                	;
 NODE_1333631    	118.6691    	0.000833    	                	;
 NODE_1333135    	126.2836    	0.006250    	                	;
 NODE_1333059    	144.9871    	0.000000    	                	;
 NODE_1332525    	147.7983    	0.000000    	                	;
 NODE_1320648    	147.7967    	0.000000    	                	;
 NODE_1336787    	147.7012    	0.013333    	                	;
 NODE_1333040    	147.8158    	0.000000    	                	;
 NODE_1334138    	126.3366    	0.000417    	                	;
 NODE_1333601    	151.3184    	0.006250    	                	;
 NODE_1333604    	148.6865    	0.001667    	                	;
 NODE_1333609    	139.7408    	0.000417    	                	;
 NODE_1316819    	130.8458    	0.002500    	                	;
 NODE_1334301    	133.5512    	0.016667    	                	;
 NODE_1334294    	139.5655    	0.004167    	                	;
 NODE_1334293    	140.8723    	0.001667    	                	;
 NODE_1335350    	143.7143    	0.000000    	                	;
 NODE_1335352    	139.9615    	0.000000    	                	;
 NODE_1332591    	130.2845    	0.001667    	                	;
 NODE_1318735    	131.9571    	0.008333    	                	;
 NODE_1336390    	126.6557    	0.015833    	                	;
 NODE_1333131    	123.3743    	0.000000    	                	;
 NODE_1332568    	126.7756    	0.000000    	                	;
 NODE_1333128    	117.2131    	0.003750    	                	;
 NODE_1332374    	145.0553    	0.000000    	                	;
 NODE_1318724    	120.3529    	0.004167    	                	;
 NODE_1336154    	133.0957    	0.000833    	                	;
 NODE_1335000    	149.5254    	0.002083    	                	;
 NODE_1337896    	126.6430    	0.003750    	                	;
 NODE_1336611    	146.1199    	0.002083    	                	;
 NODE_1333057    	145.5226    	0.000000    	                	;
 NODE_1333060    	147.7012    	0.000000    	                	;
 NODE_1315982    	140.8947    	0.007083    	                	;
 NODE_1338913    	131.5278    	0.000000    	                	;
 NODE_1333144    	132.9938    	0.003750    	                	;
 NODE_1333133    	122.7451    	0.000417    	                	;
 NODE_1330934    	121.7883    	0.001667    	                	;
 NODE_1334332    	136.6355    	0.000000    	                	;
 NODE_1332741    	150.5025    	0.002917    	                	;
 NODE_1332755    	131.5334    	0.000000    	                	;
 NODE_1332607    	153.6199    	0.000000    	                	;
 NODE_1316260    	144.2457    	0.000000    	                	;
 NODE_11294698   	144.6345    	0.007917    	                	;
 NODE_1335348    	144.8397    	0.000000    	                	;
 NODE_1332373    	147.9449    	0.012917    	                	;
 NODE_1333122    	120.9601    	0.006250    	                	;
 NODE_1327108    	133.3902    	0.000000    	                	;
 NODE_1334126    	150.8926    	0.000000    	                	;
 NODE_1332583    	126.2760    	0.002917    	                	;
 NODE_1317623    	141.7271    	0.000000    	                	;
 NODE_1318548    	126.8874    	0.013750    	                	;
 NODE_1332754    	134.0889    	0.000000    	                	;
 NODE_1332592    	132.1415    	0.003750    	                	;
 NODE_1318732    	131.9215    	0.007917    	                	;
 NODE_1333056    	146.7450    	0.000000    	                	;
 NODE_1338611    	147.0703    	0.000000    	                	;
 NODE_1333045    	144.4695    	0.000000    	                	;
 NODE_1332065    	134.2252    	0.000417    	                	;
 NODE_1334132    	143.8201    	0.002500    	                	;
 NODE_1332579    	129.0871    	0.047917    	                	;
 NODE_1333136    	126.4172    	0.000417    	                	;
 NODE_1333050    	141.6588    	0.000000    	                	;
 NODE_1338609    	148.6903    	0.000000    	                	;
 NODE_1332528    	149.3028    	0.000000    	                	;
 NODE_1332530    	148.7371    	0.000000    	                	;
 NODE_1332531    	148.5658    	0.000000    	                	;
 NODE_1334913    	147.8170    	0.000000    	                	;
 NODE_1311871    	147.2411    	0.000000    	                	;
 NODE_1332401    	145.8877    	0.000000    	                	;
 NODE_1316813    	148.3719    	0.003750    	                	;
 NODE_1317374    	142.3495    	0.000000    	                	;
 NODE_1335353    	142.6810    	0.000000    	                	;
 NODE_1340816    	145.9769    	0.015000    	                	;
 NODE_1340814    	138.8056    	0.007500    	                	;
 NODE_1332762    	149.6731    	0.001667    	                	;
 NODE_1317814    	154.7892    	0.001250    	                	;
 NODE_1332595    	136.7905    	0.003333    	                	;
 NODE_1321999    	134.4146    	0.000000    	                	;
 NODE_1333149    	131.9909    	0.002917    	                	;
 NODE_1333148    	132.2959    	0.002917    	                	;
 NODE_1332585    	126.0320    	0.008750    	                	;
 NODE_1322003    	128.7688    	0.008333    	                	;
 NODE_1318730    	126.4727    	0.009167    	                	;
 NODE_1316775    	139.3988    	0.001250    	                	;
 NODE_1334286    	151.6654    	0.008750    	                	;
 NODE_1333112    	156.5210    	0.006667    	                	;
 NODE_1337895    	135.9529    	0.000000    	                	;
 NODE_1332578    	125.7831    	0.005833    	                	;
 NODE_1332066    	130.9949    	0.014583    	                	;
 NODE_1318919    	127.3744    	0.001250    	                	;
 NODE_1333055    	145.4290    	0.000000    	                	;
 NODE_1332518    	149.4007    	0.000000    	                	;
 NODE_1333607    	138.3933    	0.006667    	                	;
 NODE_1334331    	136.4151    	0.000000    	                	;
 NODE_1334994    	150.2462    	0.003750    	                	;
 NODE_1331855    	138.2066    	0.003333    	                	;
 NODE_1334129    	131.5844    	0.000000    	                	;
 NODE_1327578    	124.7976    	0.000000    	                	;
 NODE_1336789    	146.7031    	0.000000    	                	;
 NODE_1331431    	114.7319    	0.000000    	                	;
 NODE_1332377    	137.3413    	0.011250    	                	;
 NODE_1333586    	132.9705    	0.005000    	                	;
 NODE_1334281    	141.4703    	0.002083    	                	;
 NODE_1334128    	134.3912    	0.000000    	                	;
 NODE_1333037    	147.3299    	0.000000    	                	;
 NODE_1334133    	140.6842    	0.002083    	                	;
 NODE_1321177    	149.6773    	0.003750    	                	;
 NODE_1331676    	117.4491    	0.000000    	                	;
 NODE_1332764    	148.9292    	0.000000    	                	;
 NODE_1332763    	149.6926    	0.005000    	                	;
 NODE_1332400    	136.8423    	0.000000    	                	;
 NODE_1321619    	125.9744    	0.000000    	                	;
 NODE_1333637    	127.2410    	0.003333    	                	;
 NODE_1333052    	142.6935    	0.000000    	                	;
 NODE_1319372    	150.0510    	0.002917    	                	;
 NODE_1332753    	130.9887    	0.002083    	                	;
 NODE_1317011    	149.0336    	0.000000    	                	;
 NODE_1333638    	126.9954    	0.011250    	                	;
 NODE_1335346    	144.2216    	0.000000    	                	;
 NODE_1331279    	140.8437    	0.000000    	                	;
 NODE_1318100    	136.6767    	0.000000    	                	;
 NODE_1333068    	147.2289    	0.000000    	                	;
 NODE_1332529    	148.9205    	0.000000    	                	;
 NODE_1332949    	119.5755    	0.002500    	                	;
 NODE_1334130    	146.4996    	0.001250    	                	;
 NODE_1334131    	144.4700    	0.002500    	                	;
 NODE_1315979    	140.0884    	0.001250    	                	;
 NODE_1316814    	144.5714    	0.004583    	                	;
 NODE_1332381    	122.0532    	0.006250    	                	;
 NODE_1332756    	131.3781    	0.000417    	                	;
 NODE_1334997    	149.4862    	0.003750    	                	;
 NODE_1334996    	149.7139    	0.005000    	                	;
 NODE_1317806    	127.7388    	0.004583    	                	;
 NODE_1332586    	127.7572    	0.016667    	                	;
 NODE_1333141    	132.6345    	0.000000    	                	;
 NODE_1320254    	129.0589    	0.000000    	                	;
 NODE_1316779    	140.3246    	0.010417    	                	;
 NODE_1318728    	122.6276    	0.002917    	                	;
 NODE_1316809    	141.1699    	0.004583    	                	;
 NODE_1327162    	134.0792    	0.007083    	                	;
 NODE_1334127    	138.6785    	0.002083    	                	;
 NODE_1320603    	147.3066    	0.000000    	                	;
 NODE_1340822    	143.8720    	0.003750    	                	;
 NODE_1319373    	133.8280    	0.002500    	                	;
 NODE_1333106    	156.2341    	0.000000    	                	;
 NODE_1332581    	128.9728    	0.002083    	                	;
 NODE_1333125    	123.0317    	0.004583    	                	;
 NODE_1317619    	148.1109    	0.000000    	                	;
 NODE_1333036    	147.9496    	0.000000    	                	;
 NODE_1334137    	144.6583    	0.000417    	                	;
 NODE_1333157    	126.9655    	0.009167    	                	;
 NODE_1316815    	138.5578    	0.003750    	                	;
 NODE_1317636    	149.9945    	0.004167    	                	;
 NODE_1333134    	125.0577    	0.000000    	                	;
 NODE_1333118    	119.4472    	0.000000    	                	;
 NODE_1333137    	126.4353    	0.000000    	                	;
 NODE_1335930    	146.9709    	0.000000    	                	;
 NODE_1333035    	148.2322    	0.000000    	                	;
 NODE_1334335    	141.6419    	0.006667    	                	;
 NODE_1331437    	141.7658    	0.007917    	                	;
 NODE_1337378    	148.3219    	0.002083    	                	;
 NODE_1338698    	130.7616    	0.002500    	                	;
 NODE_1318734    	132.1902    	0.003750    	                	;
 NODE_1333132    	122.7017    	0.003333    	                	;
 NODE_1334280    	141.2670    	0.004167    	                	;
 NODE_1316496    	136.5430    	0.001250    	                	;
 NODE_1322506    	149.8606    	0.003750    	                	;
 NODE_1315868    	137.2659    	0.000000    	                	;
 NODE_1337383    	116.2174    	0.001250    	                	;
 NODE_1333602    	151.9550    	0.001667    	                	;
 NODE_1318908    	139.1420    	0.002083    	                	;
 NODE_1338483    	136.2200    	0.004167    	                	;
 NODE_1334299    	134.9716    	0.005833    	                	;
 NODE_1340840    	142.0245    	0.006667    	                	;
 NODE_1317804    	129.0342    	0.010833    	                	;
 NODE_1333126    	116.6921    	0.002917    	                	;
 NODE_1317639    	150.0139    	0.003750    	                	;
 NODE_1336189    	142.7413    	0.000000    	                	;
 NODE_1338665    	136.9354    	0.000000    	                	;
 NODE_1333061    	147.2389    	0.000000    	                	;
 NODE_1333039    	147.7952    	0.000000    	                	;
 NODE_1332403    	117.2130    	0.000000    	                	;
 NODE_1334296    	136.7800    	0.006250    	                	;
 NODE_1332765    	133.8631    	0.003333    	                	;
 NODE_1317637    	149.5438    	0.000833    	                	;
 NODE_1334995    	149.8320    	0.002083    	                	;
 NODE_1337113    	146.4700    	0.000000    	                	;
 NODE_1317213    	148.9735    	0.000000    	                	;
 NODE_1335248    	145.4876    	0.000000    	                	;
 NODE_1333636    	127.6514    	0.007500    	                	;
 NODE_1317377    	128.8277    	0.000000    	                	;
 NODE_1338491    	157.4496    	0.000000    	                	;
 NODE_1332959    	127.7065    	0.000000    	                	;
 NODE_1332063    	136.5070    	0.000000    	                	;
 NODE_6265496    	142.2532    	0.000000    	                	;
 NODE_1321452    	144.2624    	0.000000    	                	;
 NODE_1338271    	163.1130    	0.000000    	                	;
 NODE_1332404    	120.4254    	0.000417    	                	;
 NODE_1333608    	138.4038    	0.003333    	                	;
 NODE_1332197    	121.8946    	0.000417    	                	;
 NODE_1316818    	134.8020    	0.002500    	                	;
 NODE_1337367    	133.9385    	0.005833    	                	;
 NODE_1334295    	137.6100    	0.004167    	                	;
 NODE_1340839    	141.6548    	0.002917    	                	;
 NODE_1340818    	146.4711    	0.004167    	                	;
 NODE_1332746    	135.0194    	0.000833    	                	;
 NODE_1334998    	149.5066    	0.005833    	                	;
 NODE_1322015    	149.6980    	0.000000    	                	;
 NODE_1318720    	154.8008    	0.005833    	                	;
 NODE_1332398    	135.0632    	0.011667    	                	;
 NODE_1332605    	151.9484    	0.000000    	                	;
 NODE_1332600    	143.7588    	0.005417    	                	;
 NODE_1317810    	139.6985    	0.002917    	                	;
 NODE_1332596    	138.4492    	0.007083    	                	;
 NODE_1317807    	127.0352    	0.003333    	                	;
 NODE_1333139    	127.6873    	0.003750    	                	;
 NODE_1331854    	139.7792    	0.003750    	                	;
 NODE_1332567    	126.7942    	0.004583    	                	;
 NODE_1318727    	117.1215    	0.005833    	                	;
 NODE_1317365    	146.0511    	0.001667    	                	;
 NODE_1338802    	140.5101    	0.002917    	                	;
 NODE_1331135    	117.7220    	0.000000    	                	;
 NODE_1333639    	127.1450    	0.001667    	                	;
 NODE_1333641    	125.8587    	0.000000    	                	;
 NODE_1332372    	143.0862    	0.000833    	                	;
 NODE_1335351    	141.6489    	0.000000    	                	;
 NODE_1317809    	135.1965    	0.002917    	                	;
 NODE_1334276    	141.9452    	0.007083    	                	;
 NODE_1317908    	144.3520    	0.000000    	                	;
 NODE_1336132    	132.2020    	0.000000    	                	;