[TITLE]
Converted from Epanet to Staci, case name: pusztacsalad.spr


[JUNCTIONS]
;ID              	Elev        	Demand      	Pattern         
 NODE_1320682    	154.0973    	0.000000    	                	;
 NODE_1322385    	157.0594    	0.000000    	                	;
 NODE_1340101    	156.1362    	0.000417    	                	;
 NODE_1331040    	156.7802    	0.002500    	                	;
 NODE_1340113    	154.6045    	0.003333    	                	;
 NODE_1340114    	154.3564    	0.004167    	                	;
 NODE_1322926    	155.7448    	0.017083    	                	;
 NODE_1338000    	157.9802    	0.000417    	                	;
 NODE_1340121    	157.6709    	0.003750    	                	;
 NODE_1322927    	157.8165    	0.002500    	                	;
 NODE_1340123    	156.8013    	0.000000    	                	;
 NODE_1322929    	156.4378    	0.001250    	                	;
 NODE_1328237    	156.4371    	0.000000    	                	;
 NODE_1328575    	156.2130    	0.000000    	                	;
 NODE_1328731    	156.2425    	0.000833    	                	;
 NODE_1316357    	156.2788    	0.000000    	                	;
 NODE_1336758    	156.3220    	0.002500    	                	;
 NODE_1320287    	157.4711    	0.004583    	                	;
 NODE_1328738    	157.3964    	0.000000    	                	;
 NODE_1316361    	154.4108    	0.005833    	                	;
 NODE_1328743    	155.8128    	0.002500    	                	;
 NODE_1337099    	156.1547    	0.000417    	                	;
 NODE_1329209    	156.2407    	0.002500    	                	;
 NODE_1329219    	157.8472    	0.000000    	                	;
 NODE_1329213    	154.7471    	0.006250    	                	;
 NODE_1329202    	156.8781    	0.000000    	                	;
 NODE_1329206    	154.4372    	0.000000    	                	;
 NODE_1316366    	150.6454    	0.000000    	                	;
 NODE_1340102    	156.2736    	0.002500    	                	;
 NODE_1331561    	157.1054    	0.005000    	                	;
 NODE_1340111    	154.7920    	0.003750    	                	;
 NODE_1322924    	154.6765    	0.000000    	                	;
 NODE_1340119    	155.4698    	0.000000    	                	;
 NODE_1340122    	157.2116    	0.001667    	                	;
 NODE_1340125    	156.3178    	0.000000    	                	;
 NODE_1328570    	156.1443    	0.000000    	                	;
 NODE_1328740    	154.6904    	0.004583    	                	;
 NODE_1328742    	155.1531    	0.000000    	                	;
 NODE_1316362    	156.4460    	0.000833    	                	;
 NODE_1316365    	155.9527    	0.002500    	                	;
 NODE_1329200    	156.2747    	0.000000    	                	;
 NODE_1339540    	155.3782    	0.000000    	                	;
 NODE_1320681    	155.8342    	0.000000    	                	;
 NODE_1330075    	156.2180    	0.000000    	                	;
 NODE_1338295    	156.4362    	0.000000    	                	;
 NODE_1339538    	154.8573    	0.000000    	                	;
 NODE_1340099    	155.6578    	0.003750    	                	;
 NODE_1322919    	155.9743    	0.004167    	                	;
 NODE_1340107    	156.8815    	0.000417    	                	;
 NODE_1340109    	154.1248    	0.000833    	                	;
 NODE_1340112    	154.8252    	0.004167    	                	;
 NODE_1340115    	154.4866    	0.000833    	                	;
 NODE_1336753    	153.8233    	0.004583    	                	;
 NODE_1328235    	156.7011    	0.002500    	                	;
 NODE_1328574    	156.2471    	0.001667    	                	;
 NODE_1328576    	156.2592    	0.007917    	                	;
 NODE_1328728    	156.2080    	0.000833    	                	;
 NODE_1328729    	156.1794    	0.001250    	                	;
 NODE_1316356    	156.1866    	0.000417    	                	;
 NODE_1328732    	156.2452    	0.003333    	                	;
 NODE_1335801    	156.4785    	0.000417    	                	;
 NODE_1320127    	157.0332    	0.001250    	                	;
 NODE_1328745    	157.2533    	0.001250    	                	;
 NODE_1316364    	157.0999    	0.003750    	                	;
 NODE_1328750    	156.4403    	0.000000    	                	;
 NODE_1328752    	155.7481    	0.002083    	                	;
 NODE_1329199    	157.0587    	0.000417    	                	;
 NODE_1320357    	157.3688    	0.000000    	                	;
 NODE_1340092    	156.6889    	0.000000    	                	;
 NODE_1329207    	154.3863    	0.007083    	                	;
 NODE_1331582    	155.3481    	0.006667    	                	;
 NODE_1320686    	156.9261    	0.005000    	                	;
 NODE_1329216    	157.1173    	0.002917    	                	;
 NODE_1339535    	157.1432    	0.000000    	                	;
 NODE_1340103    	156.2041    	0.000000    	                	;
 NODE_1322920    	156.9219    	0.000000    	                	;
 NODE_1340104    	156.6057    	0.002917    	                	;
 NODE_1322921    	156.6269    	0.000833    	                	;
 NODE_1322922    	157.0346    	0.000833    	                	;
 NODE_1322925    	154.1595    	0.000833    	                	;
 NODE_1328234    	156.6095    	0.000833    	                	;
 NODE_1336240    	156.1189    	0.001250    	                	;
 NODE_1328735    	156.3833    	0.002917    	                	;
 NODE_1328736    	156.4891    	0.002500    	                	;
 NODE_1340093    	155.3393    	0.001250    	                	;
 NODE_1329217    	156.6871    	0.000833    	                	;
 NODE_1329214    	154.8480    	0.002917    	                	;
 NODE_1329212    	154.0975    	0.017500    	                	;
 NODE_1329211    	151.0242    	0.003333    	                	;
 NODE_1320131    	156.9050    	0.000000    	                	;
 NODE_1339536    	155.6349    	0.000000    	                	;
 NODE_1339537    	158.1230    	0.000000    	                	;
 NODE_1339539    	156.5572    	0.000000    	                	;
 NODE_1340098    	154.9766    	0.002500    	                	;
 NODE_1340110    	154.8627    	0.000000    	                	;
 NODE_1340118    	155.9787    	0.000833    	                	;
 NODE_1340124    	156.2299    	0.002083    	                	;
 NODE_1320283    	156.2472    	0.004583    	                	;
 NODE_1328236    	156.4380    	0.003750    	                	;
 NODE_1320122    	156.0931    	0.002083    	                	;
 NODE_1330843    	155.9347    	0.002083    	                	;
 NODE_1316363    	157.4966    	0.000833    	                	;
 NODE_1328749    	156.7365    	0.000000    	                	;
 NODE_1329204    	154.8590    	0.004583    	                	;
 NODE_1340090    	156.2562    	0.000000    	                	;
 NODE_1329215    	157.2062    	0.000000    	                	;
 NODE_1339543    	157.1672    	0.000000    	                	;
 NODE_1331562    	156.1175    	0.000000    	                	;
 NODE_1328747    	157.6837    	0.001667    	                	;
 NODE_1340095    	155.1130    	0.000417    	                	;
 NODE_1340117    	153.4783    	0.005417    	                	;
 NODE_1340120    	157.0008    	0.000000    	                	;
 NODE_1328238    	156.4488    	0.003333    	                	;
 NODE_1328239    	156.1399    	0.001250    	                	;
 NODE_1328569    	156.1386    	0.002083    	                	;
 NODE_1328730    	156.2398    	0.004167    	                	;
 NODE_1328734    	156.5345    	0.000833    	                	;
 NODE_1316359    	156.4930    	0.004583    	                	;
 NODE_1328744    	156.6545    	0.004167    	                	;
 NODE_1329201    	156.3878    	0.002500    	                	;
 NODE_1322917    	156.5313    	0.000417    	                	;
 NODE_1329208    	155.6175    	0.000000    	                	;
 NODE_1329218    	156.5405    	0.003750    	                	;
 NODE_1340097    	154.8481    	0.001250    	                	;
 NODE_1322918    	154.7502    	0.001250    	                	;
 NODE_1335795    	157.0618    	0.000000    	                	;
 NODE_1340108    	154.5282    	0.002500    	                	;
 NODE_1322923    	154.8627    	0.003750    	                	;
 NODE_1340116    	154.0937    	0.002917    	                	;
 NODE_1322928    	156.5007    	0.002917    	                	;
 NODE_1328233    	156.3825    	0.001667    	                	;
 NODE_1322930    	156.2142    	0.002917    	                	;
 NODE_1316354    	156.1804    	0.004583    	                	;
 NODE_1328571    	155.9685    	0.001250    	                	;
 NODE_1328572    	156.0488    	0.003750    	                	;
 NODE_1331559    	156.0395    	0.002083    	                	;
 NODE_1316355    	156.2238    	0.000417    	                	;
 NODE_1316358    	156.4966    	0.000417    	                	;
 NODE_1316360    	157.3347    	0.000417    	                	;
 NODE_1322458    	154.4297    	0.000833    	                	;
 NODE_1328741    	154.4991    	0.003333    	                	;
 NODE_1336243    	155.5155    	0.005833    	                	;
 NODE_1328753    	155.5844    	0.001250    	                	;
 NODE_1320683    	154.6777    	0.002917    	                	;
 NODE_1329205    	154.5747    	0.002917    	                	;
 NODE_1320685    	154.7973    	0.002917    	                	;
 NODE_1322386    	157.2774    	0.000000    	                	;
 NODE_1340096    	155.3154    	0.001250    	                	;
 NODE_1340100    	155.8239    	0.000000    	                	;
 NODE_1340105    	156.3837    	0.002917    	                	;
 NODE_1340106    	156.9726    	0.002500    	                	;
 NODE_1330964    	157.0188    	0.001667    	                	;
 NODE_1331182    	156.4835    	0.000000    	                	;
 NODE_1328573    	156.1040    	0.002917    	                	;
 NODE_1328733    	156.2855    	0.002500    	                	;
 NODE_1328739    	154.4443    	0.001667    	                	;
 NODE_1328748    	157.3796    	0.001250    	                	;
 NODE_1328751    	156.2714    	0.002500    	                	;
 NODE_1329210    	154.2458    	0.005417    	                	;
 NODE_1329220    	155.6195    	0.000000    	                	;
 NODE_1346026    	156.3216    	0.000000    	                	;
 NODE_1346030    	156.4566    	0.000000    	                	;
 NODE_35756      	156.9753    	0.000000    	                	;
 NODE_12450      	156.5230    	0.000000    	                	;
 NODE_12450_1    	156.5143    	0.000000    	                	;
 NODE_12451      	156.5692    	0.000000    	                	;
 NODE_12451_1    	156.5412    	0.000000    	                	;
 NODE_12280      	155.8365    	0.000000    	                	;
 NODE_12280_1    	155.8585    	0.000000    	                	;
 NODE_13456      	154.5796    	0.000000    	                	;
 NODE_13456_1    	154.5586    	0.000000    	                	;
 NODE_12452      	156.5680    	0.000000    	                	;
 NODE_12452_1    	156.5400    	0.000000    	                	;
 NODE_1346120    	156.8701    	0.000000    	                	;
 NODE_12268      	157.0123    	0.000000    	                	;
 NODE_12268_1    	156.9623    	0.000000    	                	;
 NODE_12275      	156.0525    	0.000000    	                	;
 NODE_12275_1    	156.0438    	0.000000    	                	;
 NODE_12284      	156.3162    	0.000000    	                	;
 NODE_12284_1    	156.3082    	0.000000    	                	;
 NODE_1346273    	156.4942    	0.000000    	                	;
 NODE_12461      	156.3463    	0.000000    	                	;
 NODE_12461_1    	156.3483    	0.000000    	                	;
 NODE_3992244    	156.5196    	0.000000    	                	;
 NODE_12279      	156.3210    	0.000000    	                	;
 NODE_12279_1    	156.3230    	0.000000    	                	;
 NODE_1346024    	156.5301    	0.000000    	                	;
 NODE_1346114    	156.0502    	0.000000    	                	;
 NODE_12278      	156.4856    	0.000000    	                	;
 NODE_12278_1    	156.5286    	0.000000    	                	;
 NODE_1346274    	157.0156    	0.000000    	                	;
 NODE_1346115    	154.5774    	0.000000    	                	;
 NODE_12274      	156.0488    	0.000000    	                	;
 NODE_12274_1    	156.0401    	0.000000    	                	;
 NODE_1346287    	157.1541    	0.000000    	                	;
 NODE_12447      	157.1648    	0.000000    	                	;
 NODE_12447_1    	157.1598    	0.000000    	                	;
 NODE_1346033    	153.8962    	0.000000    	                	;
 NODE_12276      	156.0506    	0.000000    	                	;
 NODE_12276_1    	156.0420    	0.000000    	                	;
 NODE_1346032    	156.6331    	0.000000    	                	;
 NODE_12455      	156.9078    	0.000000    	                	;
 NODE_12455_1    	156.8991    	0.000000    	                	;
 NODE_1346286    	157.1671    	0.000000    	                	;
 NODE_3993269    	156.3177    	0.000000    	                	;
 NODE_12446      	157.1543    	0.000000    	                	;
 NODE_12446_1    	157.1493    	0.000000    	                	;
 NODE_1346113    	156.0495    	0.000000    	                	;
 NODE_12271      	153.9620    	0.000000    	                	;
 NODE_12271_1    	153.9333    	0.000000    	                	;
 NODE_12265      	156.5306    	0.000000    	                	;
 NODE_12265_1    	156.5219    	0.000000    	                	;
 NODE_12453      	156.8745    	0.000000    	                	;
 NODE_12453_1    	156.8281    	0.000000    	                	;
 NODE_12449      	157.1671    	0.000000    	                	;
 NODE_12449_1    	157.1621    	0.000000    	                	;
 NODE_12267      	157.0415    	0.000000    	                	;
 NODE_12267_1    	156.9915    	0.000000    	                	;
 NODE_12273      	156.0418    	0.000000    	                	;
 NODE_12273_1    	156.0331    	0.000000    	                	;
 NODE_1346275    	156.4831    	0.000000    	                	;
 NODE_12270      	153.9574    	0.000000    	                	;
 NODE_12270_1    	153.9287    	0.000000    	                	;
 NODE_1346025    	156.3456    	0.000000    	                	;
 NODE_12448      	157.1696    	0.000000    	                	;
 NODE_12448_1    	157.1646    	0.000000    	                	;
 NODE_12269      	153.9860    	0.000000    	                	;
 NODE_12269_1    	153.9574    	0.000000    	                	;
 NODE_1346292    	156.5616    	0.000000    	                	;
 NODE_1346118    	153.9691    	0.000000    	                	;

[RESERVOIRS]
;ID              	Head        	Pattern         
 PRESS_79        	189.7403    	                
 PRESS_135       	189.8691    	                

[TANKS]
;ID             	Elevation   	InitLevel   	MinLevel    	MaxLevel    	Diameter    	MinVol      	VolCurve
 POOL_233        	186.9000    	2.9400      	0.0000      	1000.0000   	5.6941      	0.0000      	                	

[PIPES]
;ID             	Node1           	Node2           	Length      	Diameter    	Roughness   	MinorLoss   	Status
 PIPE_553228     	NODE_1346115    	NODE_1329206    	7.7818      	160.0000    	0.0200     	0.0000      	Open  ;
 PIPE_553230     	NODE_1346273    	NODE_1346275    	0.5000      	100.0000    	0.0200     	0.0000      	Open  ;
 PIPE_553262     	PRESS_79        	NODE_1346287    	5.7527      	80.0000     	0.0200     	0.0000      	Open  ;
 PIPE_553265     	PRESS_135       	NODE_1322386    	3.9997      	80.0000     	0.0200     	0.0000      	Open  ;
 PIPE_553269     	NODE_35756      	NODE_1329199    	22.1782     	160.0000    	0.0200     	0.0000      	Open  ;
 PIPE_553293     	NODE_1329199    	NODE_1346274    	4.1934      	100.0000    	0.0200     	0.0000      	Open  ;
 PIPE_553390     	NODE_1346113    	NODE_1346114    	0.4872      	160.0000    	0.0200     	0.0000      	Open  ;
 PIPE_1466251    	NODE_1316365    	NODE_1328752    	15.6788     	160.0000    	0.0200     	0.0000      	Open  ;
 PIPE_1466256    	NODE_1328751    	NODE_1316365    	24.4338     	160.0000    	0.0200     	0.0000      	Open  ;
 PIPE_1466260    	NODE_1346292    	NODE_1328750    	8.6393      	160.0000    	0.0200     	0.0000      	Open  ;
 PIPE_1466261    	NODE_1328750    	NODE_1328751    	12.9492     	160.0000    	0.0200     	0.0000      	Open  ;
 PIPE_1466271    	NODE_1316364    	NODE_1328749    	25.4920     	160.0000    	0.0200     	0.0000      	Open  ;
 PIPE_1466276    	NODE_1328748    	NODE_1316364    	19.6260     	160.0000    	0.0200     	0.0000      	Open  ;
 PIPE_1466281    	NODE_1328747    	NODE_1328748    	21.0534     	160.0000    	0.0200     	0.0000      	Open  ;
 PIPE_1466290    	NODE_1316363    	NODE_1328747    	37.5363     	160.0000    	0.0200     	0.0000      	Open  ;
 PIPE_1466295    	NODE_1328745    	NODE_1316363    	13.6496     	160.0000    	0.0200     	0.0000      	Open  ;
 PIPE_1466306    	NODE_1328744    	NODE_1320127    	21.8861     	160.0000    	0.0200     	0.0000      	Open  ;
 PIPE_1466307    	NODE_1320127    	NODE_1328745    	12.7225     	160.0000    	0.0200     	0.0000      	Open  ;
 PIPE_1466314    	NODE_1316362    	NODE_1328744    	18.8336     	160.0000    	0.0200     	0.0000      	Open  ;
 PIPE_1466325    	NODE_1336243    	NODE_1328743    	15.2840     	160.0000    	0.0200     	0.0000      	Open  ;
 PIPE_1466329    	NODE_1329206    	NODE_1328742    	37.2600     	160.0000    	0.0200     	0.0000      	Open  ;
 PIPE_1466339    	NODE_1329206    	NODE_1316361    	10.1252     	110.0000    	0.0200     	0.0000      	Open  ;
 PIPE_1466340    	NODE_1316361    	NODE_1328741    	30.8939     	110.0000    	0.0200     	0.0000      	Open  ;
 PIPE_1466344    	NODE_1328741    	NODE_1328740    	20.0409     	110.0000    	0.0200     	0.0000      	Open  ;
 PIPE_1466349    	NODE_1328740    	NODE_1328739    	33.8458     	110.0000    	0.0200     	0.0000      	Open  ;
 PIPE_1466350    	NODE_1328739    	NODE_1322458    	1.6862      	110.0000    	0.0200     	0.0000      	Open  ;
 PIPE_1469778    	NODE_1316360    	NODE_1320287    	24.3890     	100.0000    	0.0200     	0.0000      	Open  ;
 PIPE_1469779    	NODE_1320287    	NODE_1328738    	18.3289     	100.0000    	0.0200     	0.0000      	Open  ;
 PIPE_1469788    	NODE_1316359    	NODE_1328736    	19.3695     	110.0000    	0.0200     	0.0000      	Open  ;
 PIPE_1469789    	NODE_1328736    	NODE_1346025    	27.4213     	110.0000    	0.0200     	0.0000      	Open  ;
 PIPE_1469798    	NODE_1328734    	NODE_1339539    	9.2981      	90.0000     	0.0200     	0.0000      	Open  ;
 PIPE_1469804    	NODE_1316358    	NODE_1328734    	21.2039     	90.0000     	0.0200     	0.0000      	Open  ;
 PIPE_1469810    	NODE_1328735    	NODE_1335801    	80.8920     	90.0000     	0.0200     	0.0000      	Open  ;
 PIPE_1469811    	NODE_1335801    	NODE_1316358    	17.7266     	90.0000     	0.0200     	0.0000      	Open  ;
 PIPE_1469817    	NODE_1336758    	NODE_1346025    	16.2841     	110.0000    	0.0200     	0.0000      	Open  ;
 PIPE_1469821    	NODE_1328733    	NODE_1336758    	26.8195     	110.0000    	0.0200     	0.0000      	Open  ;
 PIPE_1469826    	NODE_1316357    	NODE_1328733    	24.2387     	110.0000    	0.0200     	0.0000      	Open  ;
 PIPE_1469831    	NODE_1328732    	NODE_1316357    	34.1599     	110.0000    	0.0200     	0.0000      	Open  ;
 PIPE_1469836    	NODE_1328731    	NODE_1328732    	24.4977     	110.0000    	0.0200     	0.0000      	Open  ;
 PIPE_1469840    	NODE_1330075    	NODE_1328730    	13.3668     	110.0000    	0.0200     	0.0000      	Open  ;
 PIPE_1469841    	NODE_1328730    	NODE_1328731    	20.5085     	110.0000    	0.0200     	0.0000      	Open  ;
 PIPE_1469846    	NODE_1316356    	NODE_1330075    	14.2522     	110.0000    	0.0200     	0.0000      	Open  ;
 PIPE_1469850    	NODE_1328729    	NODE_1316356    	16.5702     	110.0000    	0.0200     	0.0000      	Open  ;
 PIPE_1469855    	NODE_1328728    	NODE_1328729    	22.1461     	110.0000    	0.0200     	0.0000      	Open  ;
 PIPE_1469864    	NODE_1328576    	NODE_1316355    	21.6865     	110.0000    	0.0200     	0.0000      	Open  ;
 PIPE_1469865    	NODE_1316355    	NODE_1328728    	16.0187     	110.0000    	0.0200     	0.0000      	Open  ;
 PIPE_1469875    	NODE_1328575    	NODE_1328574    	17.3549     	110.0000    	0.0200     	0.0000      	Open  ;
 PIPE_1469876    	NODE_1328574    	NODE_1328576    	18.7821     	110.0000    	0.0200     	0.0000      	Open  ;
 PIPE_1469882    	NODE_1328573    	NODE_1328575    	18.2904     	110.0000    	0.0200     	0.0000      	Open  ;
 PIPE_1469887    	NODE_1331559    	NODE_1328573    	24.5225     	110.0000    	0.0200     	0.0000      	Open  ;
 PIPE_1469893    	NODE_1330843    	NODE_1331559    	14.6097     	110.0000    	0.0200     	0.0000      	Open  ;
 PIPE_1469902    	NODE_1328572    	NODE_1328571    	19.0679     	90.0000     	0.0200     	0.0000      	Open  ;
 PIPE_1469903    	NODE_1328571    	NODE_1320681    	24.4700     	90.0000     	0.0200     	0.0000      	Open  ;
 PIPE_1469908    	NODE_1328570    	NODE_1328572    	18.0961     	90.0000     	0.0200     	0.0000      	Open  ;
 PIPE_1469913    	NODE_1316354    	NODE_1328570    	21.6061     	90.0000     	0.0200     	0.0000      	Open  ;
 PIPE_1469918    	NODE_1328569    	NODE_1316354    	34.7351     	90.0000     	0.0200     	0.0000      	Open  ;
 PIPE_1469927    	NODE_1320122    	NODE_1336240    	19.3863     	90.0000     	0.0200     	0.0000      	Open  ;
 PIPE_1469928    	NODE_1336240    	NODE_1328569    	19.0244     	90.0000     	0.0200     	0.0000      	Open  ;
 PIPE_1469934    	NODE_1328239    	NODE_1320122    	32.5305     	90.0000     	0.0200     	0.0000      	Open  ;
 PIPE_1469946    	NODE_1328238    	NODE_1328237    	23.5313     	90.0000     	0.0200     	0.0000      	Open  ;
 PIPE_1469951    	NODE_1328237    	NODE_1328236    	17.8131     	90.0000     	0.0200     	0.0000      	Open  ;
 PIPE_1469956    	NODE_1328236    	NODE_1322929    	13.0529     	90.0000     	0.0200     	0.0000      	Open  ;
 PIPE_1469957    	NODE_1322929    	NODE_3992244    	29.8348     	90.0000     	0.0200     	0.0000      	Open  ;
 PIPE_1470460    	NODE_1328235    	NODE_1328234    	17.4256     	100.0000    	0.0200     	0.0000      	Open  ;
 PIPE_1470461    	NODE_1328234    	NODE_1346273    	5.1983      	100.0000    	0.0200     	0.0000      	Open  ;
 PIPE_1470471    	NODE_1328233    	NODE_1322928    	18.3835     	100.0000    	0.0200     	0.0000      	Open  ;
 PIPE_1470472    	NODE_1322928    	NODE_1328235    	28.4600     	100.0000    	0.0200     	0.0000      	Open  ;
 PIPE_1470482    	NODE_1320283    	NODE_1340125    	27.2508     	100.0000    	0.0200     	0.0000      	Open  ;
 PIPE_1470483    	NODE_1340125    	NODE_1328233    	20.5622     	100.0000    	0.0200     	0.0000      	Open  ;
 PIPE_1470489    	NODE_1340124    	NODE_1320283    	25.4946     	100.0000    	0.0200     	0.0000      	Open  ;
 PIPE_1470503    	NODE_12455_1    	NODE_1330964    	11.6064     	100.0000    	0.0200     	0.0000      	Open  ;
 PIPE_1470507    	NODE_1330964    	NODE_1340122    	18.5830     	100.0000    	0.0200     	0.0000      	Open  ;
 PIPE_1470517    	NODE_1340122    	NODE_1340121    	39.0645     	100.0000    	0.0200     	0.0000      	Open  ;
 PIPE_1470518    	NODE_1340121    	NODE_1322927    	12.3793     	100.0000    	0.0200     	0.0000      	Open  ;
 PIPE_1470523    	NODE_1322927    	NODE_1338000    	13.9752     	100.0000    	0.0200     	0.0000      	Open  ;
 PIPE_1470534    	NODE_1340119    	NODE_1339540    	6.4811      	90.0000     	0.0200     	0.0000      	Open  ;
 PIPE_1470539    	NODE_1322926    	NODE_1340119    	19.2508     	90.0000     	0.0200     	0.0000      	Open  ;
 PIPE_1470544    	NODE_1322930    	NODE_1340118    	16.7242     	90.0000     	0.0200     	0.0000      	Open  ;
 PIPE_1470545    	NODE_1340118    	NODE_1322926    	15.3749     	90.0000     	0.0200     	0.0000      	Open  ;
 PIPE_1470551    	NODE_1340117    	NODE_1336753    	32.7454     	63.0000     	0.0200     	0.0000      	Open  ;
 PIPE_1470552    	NODE_1336753    	NODE_1346033    	6.7638      	63.0000     	0.0200     	0.0000      	Open  ;
 PIPE_1470560    	NODE_1340116    	NODE_1322925    	14.1080     	110.0000    	0.0200     	0.0000      	Open  ;
 PIPE_1471110    	NODE_1322923    	NODE_1339538    	1.1178      	110.0000    	0.0200     	0.0000      	Open  ;
 PIPE_1471121    	NODE_1346033    	NODE_1340109    	21.0290     	63.0000     	0.0200     	0.0000      	Open  ;
 PIPE_1471122    	NODE_1340109    	NODE_1340108    	39.9894     	63.0000     	0.0200     	0.0000      	Open  ;
 PIPE_1471129    	NODE_1322922    	NODE_1335795    	26.2757     	110.0000    	0.0200     	0.0000      	Open  ;
 PIPE_1471130    	NODE_1335795    	NODE_1322385    	5.7383      	110.0000    	0.0200     	0.0000      	Open  ;
 PIPE_1471140    	NODE_1340107    	NODE_1340106    	21.4249     	110.0000    	0.0200     	0.0000      	Open  ;
 PIPE_1471141    	NODE_1340106    	NODE_1322922    	14.5782     	110.0000    	0.0200     	0.0000      	Open  ;
 PIPE_1471146    	NODE_1346030    	NODE_1322921    	21.6493     	110.0000    	0.0200     	0.0000      	Open  ;
 PIPE_1471151    	NODE_1322921    	NODE_1331040    	19.8244     	110.0000    	0.0200     	0.0000      	Open  ;
 PIPE_1471152    	NODE_1331040    	NODE_1340107    	17.8074     	110.0000    	0.0200     	0.0000      	Open  ;
 PIPE_1471157    	NODE_1346030    	NODE_1340105    	9.4419      	110.0000    	0.0200     	0.0000      	Open  ;
 PIPE_1471158    	NODE_1340105    	NODE_3993269    	11.4689     	110.0000    	0.0200     	0.0000      	Open  ;
 PIPE_1471161    	NODE_1346032    	NODE_1340104    	5.5495      	110.0000    	0.0200     	0.0000      	Open  ;
 PIPE_1471162    	NODE_1340104    	NODE_3993269    	31.4657     	110.0000    	0.0200     	0.0000      	Open  ;
 PIPE_1471166    	NODE_1322920    	NODE_1346032    	39.0194     	110.0000    	0.0200     	0.0000      	Open  ;
 PIPE_1471169    	NODE_1339535    	NODE_1331561    	10.2570     	110.0000    	0.0200     	0.0000      	Open  ;
 PIPE_1471170    	NODE_1331561    	NODE_1322920    	26.0778     	110.0000    	0.0200     	0.0000      	Open  ;
 PIPE_1471191    	NODE_1340101    	NODE_1340103    	16.9325     	160.0000    	0.0200     	0.0000      	Open  ;
 PIPE_1471197    	NODE_1340100    	NODE_1322919    	18.8527     	160.0000    	0.0200     	0.0000      	Open  ;
 PIPE_1471203    	NODE_1340099    	NODE_1340100    	24.4305     	160.0000    	0.0200     	0.0000      	Open  ;
 PIPE_1471220    	NODE_1340098    	NODE_1340097    	14.9784     	160.0000    	0.0200     	0.0000      	Open  ;
 PIPE_1471221    	NODE_1340097    	NODE_1322918    	11.3981     	160.0000    	0.0200     	0.0000      	Open  ;
 PIPE_1471226    	NODE_1328743    	NODE_1338295    	37.0876     	160.0000    	0.0200     	0.0000      	Open  ;
 PIPE_1471227    	NODE_1338295    	NODE_1316362    	1.0054      	160.0000    	0.0200     	0.0000      	Open  ;
 PIPE_1471232    	NODE_1328753    	NODE_1340096    	20.5884     	160.0000    	0.0200     	0.0000      	Open  ;
 PIPE_1471238    	NODE_1340096    	NODE_1340095    	13.3358     	160.0000    	0.0200     	0.0000      	Open  ;
 PIPE_1471239    	NODE_1340095    	NODE_1340098    	11.6607     	160.0000    	0.0200     	0.0000      	Open  ;
 PIPE_1471244    	NODE_1328752    	NODE_1339536    	8.6817      	160.0000    	0.0200     	0.0000      	Open  ;
 PIPE_1471251    	NODE_1322919    	NODE_1331562    	20.0347     	160.0000    	0.0200     	0.0000      	Open  ;
 PIPE_1471252    	NODE_1331562    	NODE_1340101    	4.6667      	160.0000    	0.0200     	0.0000      	Open  ;
 PIPE_1475280    	NODE_1316366    	NODE_1329211    	20.3932     	110.0000    	0.0200     	0.0000      	Open  ;
 PIPE_1475285    	NODE_1329212    	NODE_1340116    	0.4301      	110.0000    	0.0200     	0.0000      	Open  ;
 PIPE_1475289    	NODE_1322924    	NODE_1329213    	12.7999     	110.0000    	0.0200     	0.0000      	Open  ;
 PIPE_1475290    	NODE_1329213    	NODE_1340111    	6.1702      	110.0000    	0.0200     	0.0000      	Open  ;
 PIPE_1475295    	NODE_1340111    	NODE_1320685    	6.3140      	110.0000    	0.0200     	0.0000      	Open  ;
 PIPE_1475296    	NODE_1320685    	NODE_1340112    	11.8987     	110.0000    	0.0200     	0.0000      	Open  ;
 PIPE_1475302    	NODE_1340110    	NODE_1329214    	15.3691     	110.0000    	0.0200     	0.0000      	Open  ;
 PIPE_1475303    	NODE_1329214    	NODE_1322923    	3.4765      	110.0000    	0.0200     	0.0000      	Open  ;
 PIPE_1475308    	NODE_1328738    	NODE_1329215    	20.7419     	100.0000    	0.0200     	0.0000      	Open  ;
 PIPE_1475314    	NODE_1329215    	NODE_1329216    	16.7558     	100.0000    	0.0200     	0.0000      	Open  ;
 PIPE_1475319    	NODE_1329216    	NODE_1320686    	28.3567     	100.0000    	0.0200     	0.0000      	Open  ;
 PIPE_1475324    	NODE_1320686    	NODE_1329217    	21.9612     	100.0000    	0.0200     	0.0000      	Open  ;
 PIPE_1475325    	NODE_1329217    	NODE_1346024    	14.4270     	100.0000    	0.0200     	0.0000      	Open  ;
 PIPE_1475329    	NODE_1331182    	NODE_1329218    	6.7010      	100.0000    	0.0200     	0.0000      	Open  ;
 PIPE_1475335    	NODE_1338000    	NODE_1329219    	39.1745     	100.0000    	0.0200     	0.0000      	Open  ;
 PIPE_1475336    	NODE_1329219    	NODE_1340120    	60.0387     	100.0000    	0.0200     	0.0000      	Open  ;
 PIPE_1475341    	NODE_1322918    	NODE_1329220    	65.7703     	160.0000    	0.0200     	0.0000      	Open  ;
 PIPE_1475342    	NODE_1329220    	NODE_1340099    	31.9007     	160.0000    	0.0200     	0.0000      	Open  ;
 PIPE_1475348    	NODE_1339536    	NODE_1329208    	1.4036      	160.0000    	0.0200     	0.0000      	Open  ;
 PIPE_1475349    	NODE_1329208    	NODE_1328753    	2.6832      	160.0000    	0.0200     	0.0000      	Open  ;
 PIPE_1475356    	NODE_1329209    	NODE_1328239    	43.3879     	90.0000     	0.0200     	0.0000      	Open  ;