[TITLE]
Converted from Epanet to Staci, case name: rojtokmuzsaj.spr


[JUNCTIONS]
;ID              	Elev        	Demand      	Pattern         
 NODE_1340955    	141.0303    	0.004583    	                	;
 NODE_1340804    	140.0533    	0.002917    	                	;
 NODE_1340294    	135.9623    	0.000417    	                	;
 NODE_1340289    	135.8721    	0.003333    	                	;
 NODE_1340284    	134.8521    	0.001250    	                	;
 NODE_1341474    	130.4642    	0.002083    	                	;
 NODE_1319127    	136.7557    	0.000000    	                	;
 NODE_1321536    	134.0749    	0.000417    	                	;
 NODE_1340257    	132.8392    	0.002083    	                	;
 NODE_1330714    	135.4409    	0.000000    	                	;
 NODE_1319128    	135.1009    	0.000000    	                	;
 NODE_1340799    	139.3878    	0.003333    	                	;
 NODE_1341482    	131.6250    	0.000000    	                	;
 NODE_1341471    	136.4222    	0.000000    	                	;
 NODE_1331549    	142.2271    	0.004167    	                	;
 NODE_1340794    	137.8407    	0.000000    	                	;
 NODE_1331547    	138.3168    	0.008333    	                	;
 NODE_1321742    	136.0979    	0.002917    	                	;
 NODE_1340270    	134.8540    	0.002083    	                	;
 NODE_1340269    	135.4075    	0.000000    	                	;
 NODE_1339718    	132.3481    	0.007500    	                	;
 NODE_1341472    	136.1233    	0.000000    	                	;
 NODE_6270301    	136.3344    	0.000000    	                	;
 NODE_1335560    	135.3808    	0.005417    	                	;
 NODE_1327028    	135.2956    	0.000000    	                	;
 NODE_1337315    	136.3439    	0.000833    	                	;
 NODE_1319126    	131.1009    	0.000000    	                	;
 NODE_1336054    	137.3950    	0.003333    	                	;
 NODE_1339715    	131.4644    	0.004583    	                	;
 NODE_1340801    	139.8305    	0.004167    	                	;
 NODE_1340296    	136.3430    	0.028750    	                	;
 NODE_1340291    	136.1145    	0.000833    	                	;
 NODE_1340287    	135.3185    	0.004167    	                	;
 NODE_1340263    	131.9078    	0.005000    	                	;
 NODE_1341473    	130.2686    	0.004167    	                	;
 NODE_1341476    	130.9898    	0.002083    	                	;
 NODE_1341463    	136.6891    	0.001250    	                	;
 NODE_1340797    	138.3664    	0.000417    	                	;
 NODE_1340788    	136.2910    	0.001250    	                	;
 NODE_1340260    	132.7745    	0.000833    	                	;
 NODE_1321528    	132.7153    	0.002500    	                	;
 NODE_1327941    	131.8520    	0.002500    	                	;
 NODE_1339716    	131.7576    	0.004167    	                	;
 NODE_1341464    	136.2694    	0.001667    	                	;
 NODE_1337143    	140.3391    	0.004167    	                	;
 NODE_1322574    	137.2836    	0.001667    	                	;
 NODE_1340784    	137.8689    	0.004167    	                	;
 NODE_1340258    	132.7541    	0.002500    	                	;
 NODE_1339713    	130.6402    	0.000000    	                	;
 NODE_1322579    	140.1789    	0.001250    	                	;
 NODE_1340293    	135.6654    	0.001667    	                	;
 NODE_1340281    	133.2724    	0.006667    	                	;
 NODE_1329149    	135.3374    	0.002917    	                	;
 NODE_1323172    	134.9987    	0.005417    	                	;
 NODE_1340805    	140.1291    	0.010417    	                	;
 NODE_1340782    	138.5734    	0.006250    	                	;
 NODE_1340781    	139.5355    	0.004167    	                	;
 NODE_1340275    	135.0205    	0.002083    	                	;
 NODE_1327042    	131.8731    	0.010833    	                	;
 NODE_1321532    	135.5696    	0.002083    	                	;
 NODE_1341470    	136.0498    	0.000000    	                	;
 NODE_1341269    	136.6295    	0.004167    	                	;
 NODE_1336809    	139.0969    	0.004583    	                	;
 NODE_1340790    	136.4778    	0.001250    	                	;
 NODE_1340779    	139.9657    	0.000000    	                	;
 NODE_1340278    	135.0386    	0.000417    	                	;
 NODE_1329387    	131.2811    	0.004167    	                	;
 NODE_1340787    	136.6505    	0.004167    	                	;
 NODE_1331204    	136.2070    	0.001250    	                	;
 NODE_1340264    	135.4262    	0.001250    	                	;
 NODE_1329150    	130.7612    	0.003333    	                	;
 NODE_1327026    	135.6393    	0.000000    	                	;
 NODE_1341465    	136.3400    	0.002917    	                	;
 NODE_1340958    	142.7471    	0.000833    	                	;
 NODE_1340297    	136.2758    	0.000833    	                	;
 NODE_1319124    	130.7130    	0.000833    	                	;
 NODE_1322580    	141.0592    	0.002083    	                	;
 NODE_1337845    	136.1406    	0.000000    	                	;
 NODE_1340285    	135.1091    	0.009167    	                	;
 NODE_1340282    	133.5726    	0.001667    	                	;
 NODE_1339714    	130.8867    	0.002917    	                	;
 NODE_1341475    	130.7754    	0.000000    	                	;
 NODE_1327043    	130.4575    	0.005417    	                	;
 NODE_1320265    	138.7466    	0.000000    	                	;
 NODE_1319119    	136.9645    	0.002083    	                	;
 NODE_1322271    	130.5395    	0.002083    	                	;
 NODE_1341268    	136.5780    	0.001667    	                	;
 NODE_1322577    	139.5695    	0.001250    	                	;
 NODE_1340292    	135.6626    	0.000000    	                	;
 NODE_1341480    	136.5149    	0.000000    	                	;
 NODE_1341484    	135.3560    	0.000000    	                	;
 NODE_1331550    	136.7115    	0.004583    	                	;
 NODE_1340960    	143.7258    	0.001250    	                	;
 NODE_1340792    	136.8848    	0.003333    	                	;
 NODE_1340265    	136.8007    	0.000000    	                	;
 NODE_1336047    	132.4426    	0.003333    	                	;
 NODE_1319123    	130.2462    	0.001250    	                	;
 NODE_1323174    	133.9327    	0.009167    	                	;
 NODE_1319453    	133.2342    	0.002500    	                	;
 NODE_1340803    	140.0131    	0.000000    	                	;
 NODE_1340796    	138.2081    	0.006667    	                	;
 NODE_1340776    	140.3084    	0.000000    	                	;
 NODE_1322292    	141.0823    	0.001667    	                	;
 NODE_1339712    	130.5133    	0.003333    	                	;
 NODE_1331207    	136.3072    	0.002083    	                	;
 NODE_1322576    	138.6749    	0.004583    	                	;
 NODE_1341485    	136.2887    	0.000000    	                	;
 NODE_1321537    	135.1931    	0.000000    	                	;
 NODE_1320650    	131.1128    	0.000417    	                	;
 NODE_1341467    	131.0812    	0.000000    	                	;
 NODE_1319987    	136.9358    	0.002917    	                	;
 NODE_1331177    	145.1921    	0.000000    	                	;
 NODE_1337992    	140.1023    	0.001250    	                	;
 NODE_1340778    	140.0938    	0.001250    	                	;
 NODE_1340276    	134.8733    	0.006667    	                	;
 NODE_1335600    	131.0703    	0.003750    	                	;
 NODE_1327031    	132.7795    	0.002083    	                	;
 NODE_1319121    	130.2277    	0.000000    	                	;
 NODE_1340959    	143.2880    	0.002500    	                	;
 NODE_1340956    	141.3708    	0.000000    	                	;
 NODE_1340277    	134.9264    	0.005417    	                	;
 NODE_1319596    	132.2435    	0.000833    	                	;
 NODE_1340793    	137.6026    	0.007500    	                	;
 NODE_1330969    	140.5034    	0.003750    	                	;
 NODE_1340286    	135.1550    	0.001250    	                	;
 NODE_1321535    	135.1842    	0.001667    	                	;
 NODE_1337133    	130.8387    	0.001667    	                	;
 NODE_1341478    	131.1058    	0.001250    	                	;
 NODE_1319125    	131.1554    	0.000000    	                	;
 NODE_1319122    	141.1398    	0.000000    	                	;
 NODE_1321980    	135.7663    	0.000417    	                	;
 NODE_1336051    	135.9037    	0.001667    	                	;
 NODE_1321530    	136.3250    	0.001667    	                	;
 NODE_1339717    	132.2323    	0.002083    	                	;
 NODE_1336105    	144.4172    	0.003333    	                	;
 NODE_1340957    	141.6919    	0.000000    	                	;
 NODE_1340789    	136.2934    	0.002917    	                	;
 NODE_1327942    	136.2881    	0.000417    	                	;
 NODE_1340268    	135.7728    	0.000000    	                	;
 NODE_1340256    	132.6369    	0.003333    	                	;
 NODE_1322294    	137.3674    	0.001250    	                	;
 NODE_1340290    	135.8834    	0.004167    	                	;
 NODE_1327115    	136.4219    	0.003333    	                	;
 NODE_1318199    	139.2610    	0.000000    	                	;
 NODE_1340802    	139.9356    	0.005417    	                	;
 NODE_1340774    	142.7776    	0.000000    	                	;
 NODE_1321533    	135.9977    	0.000000    	                	;
 NODE_1341477    	131.0848    	0.002083    	                	;
 NODE_1327114    	141.1127    	0.000000    	                	;
 NODE_1322581    	145.0690    	0.000000    	                	;
 NODE_1327943    	144.9070    	0.001667    	                	;
 NODE_1322578    	139.9259    	0.000417    	                	;
 NODE_1322575    	138.0452    	0.000417    	                	;
 NODE_1340795    	137.9260    	0.002917    	                	;
 NODE_1331548    	137.1388    	0.000417    	                	;
 NODE_1322295    	136.4614    	0.000833    	                	;
 NODE_1337139    	136.3819    	0.000000    	                	;
 NODE_1340259    	133.5965    	0.000000    	                	;
 NODE_1341483    	137.0193    	0.000000    	                	;
 NODE_1341481    	134.2571    	0.000000    	                	;
 NODE_1322786    	145.1912    	0.000000    	                	;
 NODE_1340806    	140.3828    	0.002083    	                	;
 NODE_1336110    	136.7462    	0.000000    	                	;
 NODE_1337043    	132.9694    	0.000000    	                	;
 NODE_1336100    	135.9871    	0.001667    	                	;
 NODE_1319606    	136.1221    	0.000000    	                	;
 NODE_1340800    	139.7260    	0.001250    	                	;
 NODE_1322296    	136.5617    	0.000000    	                	;
 NODE_1340261    	132.6160    	0.004167    	                	;
 NODE_1327030    	136.3434    	0.004583    	                	;
 NODE_1340798    	138.4932    	0.001250    	                	;
 NODE_1340791    	136.6848    	0.000000    	                	;
 NODE_1336104    	136.7193    	0.003333    	                	;
 NODE_1340272    	136.1683    	0.002500    	                	;
 NODE_1337138    	132.8034    	0.001667    	                	;
 NODE_1330973    	136.3985    	0.005833    	                	;
 NODE_1340783    	138.0587    	0.000000    	                	;
 NODE_1322293    	140.0633    	0.005000    	                	;
 NODE_1340777    	140.2117    	0.005417    	                	;
 NODE_1321743    	136.2907    	0.000000    	                	;
 NODE_1340295    	136.0693    	0.004583    	                	;
 NODE_1321539    	135.7920    	0.000000    	                	;
 NODE_1340279    	135.2504    	0.006667    	                	;
 NODE_1321534    	134.8766    	0.000417    	                	;
 NODE_1341468    	134.8818    	0.000000    	                	;
 NODE_1321529    	132.4218    	0.001667    	                	;
 NODE_1340786    	137.1131    	0.000833    	                	;
 NODE_1341466    	136.3402    	0.006250    	                	;
 NODE_1340775    	141.6682    	0.003750    	                	;
 NODE_1321538    	136.1074    	0.002917    	                	;
 NODE_1340288    	135.8150    	0.005417    	                	;
 NODE_1340283    	134.7204    	0.002083    	                	;
 NODE_1340273    	135.6525    	0.000417    	                	;
 NODE_1327027    	135.9060    	0.009583    	                	;
 NODE_1341972    	136.9576    	0.000000    	                	;
 NODE_1340780    	139.9351    	0.002500    	                	;
 NODE_1340961    	145.1822    	0.000417    	                	;
 NODE_1319663    	132.0518    	0.000417    	                	;
 NODE_1340267    	136.7860    	0.000833    	                	;
 NODE_1321531    	136.7812    	0.000417    	                	;
 NODE_1330968    	138.7669    	0.006667    	                	;
 NODE_1340280    	133.2196    	0.002917    	                	;
 NODE_1321527    	132.7128    	0.001250    	                	;
 NODE_1341479    	130.5076    	0.002500    	                	;
 NODE_1327029    	136.1722    	0.000417    	                	;
 NODE_1340785    	137.4833    	0.005000    	                	;
 NODE_1320651    	132.2817    	0.001250    	                	;
 NODE_1327040    	135.6679    	0.000417    	                	;
 NODE_1327041    	134.2807    	0.007083    	                	;
 NODE_1341462    	136.9125    	0.008333    	                	;
 NODE_1318198    	140.3541    	0.000000    	                	;
 NODE_1322207    	136.4061    	0.000833    	                	;
 NODE_1338223    	136.2650    	0.004583    	                	;
 NODE_1337989    	136.2644    	0.002917    	                	;
 NODE_1340274    	135.3648    	0.000000    	                	;
 NODE_1340271    	134.6522    	0.005417    	                	;
 NODE_1340266    	136.8351    	0.002917    	                	;
 NODE_1340962    	145.1935    	0.004583    	                	;
 NODE_1319118    	136.6706    	0.001667    	                	;
 NODE_1336099    	136.7652    	0.000000    	                	;
 NODE_1340262    	132.0995    	0.000417    	                	;
 NODE_9933       	135.4717    	0.000000    	                	;
 NODE_9933_1     	135.4648    	0.000000    	                	;
 NODE_12870      	136.1647    	0.000000    	                	;
 NODE_12870_1    	136.1397    	0.000000    	                	;
 NODE_1346260    	131.4788    	0.000000    	                	;
 NODE_1346035    	135.7153    	0.000000    	                	;
 NODE_1346258    	132.8286    	0.000000    	                	;
 NODE_9926       	132.4322    	0.000000    	                	;
 NODE_9926_1     	132.4382    	0.000000    	                	;
 NODE_12873      	135.3736    	0.000000    	                	;
 NODE_12873_1    	135.3639    	0.000000    	                	;
 NODE_3369       	136.3314    	0.000000    	                	;
 NODE_3369_1     	136.3488    	0.000000    	                	;
 NODE_1346302    	132.1380    	0.000000    	                	;
 NODE_9931       	135.4706    	0.000000    	                	;
 NODE_9931_1     	135.4639    	0.000000    	                	;
 NODE_1346261    	136.1618    	0.000000    	                	;
 NODE_9925       	135.7111    	0.000000    	                	;
 NODE_9925_1     	135.7344    	0.000000    	                	;
 NODE_1346036    	145.1945    	0.000000    	                	;
 NODE_1346283    	135.3749    	0.000000    	                	;
 NODE_1346040    	132.4312    	0.000000    	                	;
 NODE_3999384    	131.5841    	0.000000    	                	;
 NODE_9932       	135.4726    	0.000000    	                	;
 NODE_9932_1     	135.4659    	0.000000    	                	;
 NODE_1346041    	135.5972    	0.000000    	                	;
 NODE_12877      	136.5801    	0.000000    	                	;
 NODE_12877_1    	136.5636    	0.000000    	                	;
 NODE_1346039    	136.3815    	0.000000    	                	;
 NODE_3987898    	135.3936    	0.000000    	                	;
 NODE_9919       	135.3898    	0.000000    	                	;
 NODE_9919_1     	135.3551    	0.000000    	                	;
 NODE_9916       	135.5141    	0.000000    	                	;
 NODE_9916_1     	135.5128    	0.000000    	                	;
 NODE_9936       	132.7958    	0.000000    	                	;
 NODE_9936_1     	132.7965    	0.000000    	                	;
 NODE_1346268    	134.5333    	0.000000    	                	;
 NODE_3370       	136.3286    	0.000000    	                	;
 NODE_3370_1     	136.3459    	0.000000    	                	;
 NODE_9928       	131.4775    	0.000000    	                	;
 NODE_9928_1     	131.4702    	0.000000    	                	;
 NODE_9918       	134.5289    	0.000000    	                	;
 NODE_9918_1     	134.5248    	0.000000    	                	;
 NODE_1346281    	136.5715    	0.000000    	                	;
 NODE_1346280    	136.5181    	0.000000    	                	;
 NODE_1346263    	132.7951    	0.000000    	                	;
 NODE_9921       	136.3818    	0.000000    	                	;
 NODE_9921_1     	136.3788    	0.000000    	                	;
 NODE_12874      	134.5309    	0.000000    	                	;
 NODE_12874_1    	134.5289    	0.000000    	                	;
 NODE_12875      	136.5112    	0.000000    	                	;
 NODE_12875_1    	136.4932    	0.000000    	                	;
 NODE_1346037    	135.5118    	0.000000    	                	;
 NODE_9927       	131.5854    	0.000000    	                	;
 NODE_9927_1     	131.5624    	0.000000    	                	;
 NODE_12871      	136.1591    	0.000000    	                	;
 NODE_12871_1    	136.1341    	0.000000    	                	;
 NODE_9909       	136.1610    	0.000000    	                	;
 NODE_9909_1     	136.1437    	0.000000    	                	;
 NODE_1346269    	135.4718    	0.000000    	                	;
 NODE_1346034    	135.5104    	0.000000    	                	;
 NODE_9920       	135.5102    	0.000000    	                	;
 NODE_9920_1     	135.5089    	0.000000    	                	;
 NODE_9924       	135.7194    	0.000000    	                	;
 NODE_9924_1     	135.7427    	0.000000    	                	;
 NODE_12872      	134.5360    	0.000000    	                	;
 NODE_12872_1    	134.5278    	0.000000    	                	;
 NODE_9922       	136.3819    	0.000000    	                	;
 NODE_9922_1     	136.3789    	0.000000    	                	;
 NODE_1346303    	136.5779    	0.000000    	                	;
 NODE_9938       	138.7445    	0.000000    	                	;
 NODE_9938_1     	138.7325    	0.000000    	                	;
 NODE_3990358    	136.1630    	0.000000    	                	;
 NODE_9923       	135.7202    	0.000000    	                	;
 NODE_9923_1     	135.7436    	0.000000    	                	;
 NODE_12878      	136.5760    	0.000000    	                	;
 NODE_12878_1    	136.5592    	0.000000    	                	;
 NODE_1346277    	136.3288    	0.000000    	                	;

[RESERVOIRS]
;ID              	Head        	Pattern         
 PRESS_182       	165.0674    	                

[TANKS]
;ID             	Elevation   	InitLevel   	MinLevel    	MaxLevel    	Diameter    	MinVol      	VolCurve
 POOL_234        	164.5000    	2.7100      	0.0000      	1000.0000   	6.3662      	0.0000      	                	

[PIPES]
;ID             	Node1           	Node2           	Length      	Diameter    	Roughness   	MinorLoss   	Status
 PIPE_565805     	NODE_1346260    	NODE_3999384    	12.9468     	80.0000     	0.0200     	0.0000      	Open  ;
 PIPE_565845     	PRESS_182       	NODE_1346281    	4.6776      	50.0000     	0.0200     	0.0000      	Open  ;
 PIPE_565852     	NODE_1346303    	NODE_1341480    	8.2544      	110.0000    	0.0200     	0.0000      	Open  ;
 PIPE_566042     	NODE_1346037    	NODE_3987898    	11.7592     	125.0000    	0.0200     	0.0000      	Open  ;
 PIPE_566043     	NODE_1346034    	NODE_1346037    	1.6179      	125.0000    	0.0200     	0.0000      	Open  ;
 PIPE_1466359    	NODE_1319596    	NODE_1321529    	12.4045     	80.0000     	0.0200     	0.0000      	Open  ;
 PIPE_1466364    	NODE_1340262    	NODE_1319596    	10.2364     	80.0000     	0.0200     	0.0000      	Open  ;
 PIPE_1466369    	NODE_1340263    	NODE_1340262    	9.9694      	80.0000     	0.0200     	0.0000      	Open  ;
 PIPE_1466377    	NODE_1340264    	NODE_1321530    	28.0456     	80.0000     	0.0200     	0.0000      	Open  ;
 PIPE_1466382    	NODE_1321530    	NODE_1336099    	45.7541     	80.0000     	0.0200     	0.0000      	Open  ;
 PIPE_1466387    	NODE_1336099    	NODE_1340265    	6.9381      	80.0000     	0.0200     	0.0000      	Open  ;
 PIPE_1466392    	NODE_1340265    	NODE_1340266    	19.1304     	80.0000     	0.0200     	0.0000      	Open  ;
 PIPE_1466397    	NODE_1340266    	NODE_1321531    	25.9074     	80.0000     	0.0200     	0.0000      	Open  ;
 PIPE_1466402    	NODE_1321531    	NODE_1340267    	14.6149     	80.0000     	0.0200     	0.0000      	Open  ;
 PIPE_1466408    	NODE_1340267    	NODE_1336051    	28.5772     	80.0000     	0.0200     	0.0000      	Open  ;
 PIPE_1466413    	NODE_1336051    	NODE_1340268    	21.1112     	80.0000     	0.0200     	0.0000      	Open  ;
 PIPE_1466438    	NODE_1321532    	NODE_1340269    	15.1927     	125.0000    	0.0200     	0.0000      	Open  ;
 PIPE_1466448    	NODE_1340270    	NODE_1340271    	12.5781     	125.0000    	0.0200     	0.0000      	Open  ;
 PIPE_1466464    	NODE_1321533    	NODE_1340273    	14.1026     	125.0000    	0.0200     	0.0000      	Open  ;
 PIPE_1466470    	NODE_1340273    	NODE_1340274    	17.9366     	125.0000    	0.0200     	0.0000      	Open  ;
 PIPE_1466476    	NODE_1340274    	NODE_1340275    	19.7995     	125.0000    	0.0200     	0.0000      	Open  ;
 PIPE_1466482    	NODE_1340275    	NODE_1321534    	23.2676     	125.0000    	0.0200     	0.0000      	Open  ;
 PIPE_1466483    	NODE_1321534    	NODE_1341468    	10.4933     	125.0000    	0.0200     	0.0000      	Open  ;
 PIPE_1466488    	NODE_1341468    	NODE_1340276    	7.9469      	125.0000    	0.0200     	0.0000      	Open  ;
 PIPE_1466493    	NODE_1340276    	NODE_1340277    	13.0805     	125.0000    	0.0200     	0.0000      	Open  ;
 PIPE_1466499    	NODE_1340277    	NODE_1340278    	11.4991     	125.0000    	0.0200     	0.0000      	Open  ;
 PIPE_1466505    	NODE_1340278    	NODE_1321535    	17.4107     	125.0000    	0.0200     	0.0000      	Open  ;
 PIPE_1466511    	NODE_1321535    	NODE_1340279    	12.5554     	125.0000    	0.0200     	0.0000      	Open  ;
 PIPE_1466516    	NODE_1340279    	NODE_1329149    	19.1343     	125.0000    	0.0200     	0.0000      	Open  ;
 PIPE_1466526    	NODE_1340282    	NODE_1340281    	23.0183     	80.0000     	0.0200     	0.0000      	Open  ;
 PIPE_1466531    	NODE_1321536    	NODE_1340282    	40.7142     	80.0000     	0.0200     	0.0000      	Open  ;
 PIPE_1466541    	NODE_1340284    	NODE_1340283    	18.2715     	125.0000    	0.0200     	0.0000      	Open  ;
 PIPE_1466547    	NODE_1340285    	NODE_1340284    	42.5220     	125.0000    	0.0200     	0.0000      	Open  ;
 PIPE_1466552    	NODE_1340286    	NODE_1340285    	17.8712     	125.0000    	0.0200     	0.0000      	Open  ;
 PIPE_1466557    	NODE_1340287    	NODE_1340286    	12.2285     	125.0000    	0.0200     	0.0000      	Open  ;
 PIPE_1466562    	NODE_1335560    	NODE_1346283    	0.9689      	125.0000    	0.0200     	0.0000      	Open  ;
 PIPE_1466575    	NODE_1340289    	NODE_1340288    	43.9715     	125.0000    	0.0200     	0.0000      	Open  ;
 PIPE_1466580    	NODE_1340290    	NODE_1340289    	18.7441     	125.0000    	0.0200     	0.0000      	Open  ;
 PIPE_1466585    	NODE_1321538    	NODE_1340290    	63.6689     	125.0000    	0.0200     	0.0000      	Open  ;
 PIPE_1466590    	NODE_1340291    	NODE_1321538    	11.4595     	125.0000    	0.0200     	0.0000      	Open  ;
 PIPE_1466600    	NODE_1340292    	NODE_1340293    	10.3179     	125.0000    	0.0200     	0.0000      	Open  ;
 PIPE_1466606    	NODE_1340293    	NODE_1321980    	20.3361     	125.0000    	0.0200     	0.0000      	Open  ;
 PIPE_1466612    	NODE_1321980    	NODE_1321539    	11.6499     	125.0000    	0.0200     	0.0000      	Open  ;
 PIPE_1466618    	NODE_1321539    	NODE_1340294    	43.0138     	125.0000    	0.0200     	0.0000      	Open  ;
 PIPE_1466624    	NODE_1340294    	NODE_1336100    	14.2460     	125.0000    	0.0200     	0.0000      	Open  ;
 PIPE_1466625    	NODE_1336100    	NODE_1341470    	12.5575     	125.0000    	0.0200     	0.0000      	Open  ;
 PIPE_1466631    	NODE_1341470    	NODE_1340295    	6.0413      	125.0000    	0.0200     	0.0000      	Open  ;
 PIPE_1466637    	NODE_1340295    	NODE_1321742    	20.8695     	125.0000    	0.0200     	0.0000      	Open  ;
 PIPE_1466642    	NODE_1321742    	NODE_1337845    	16.8007     	125.0000    	0.0200     	0.0000      	Open  ;
 PIPE_1466647    	NODE_1337845    	NODE_1331204    	16.7243     	125.0000    	0.0200     	0.0000      	Open  ;
 PIPE_1466652    	NODE_1331204    	NODE_1337989    	21.8865     	125.0000    	0.0200     	0.0000      	Open  ;
 PIPE_1466657    	NODE_1337989    	NODE_1327942    	14.6310     	125.0000    	0.0200     	0.0000      	Open  ;
 PIPE_1466662    	NODE_1327942    	NODE_1340296    	19.6278     	125.0000    	0.0200     	0.0000      	Open  ;
 PIPE_1466667    	NODE_1340296    	NODE_1321743    	18.4027     	125.0000    	0.0200     	0.0000      	Open  ;
 PIPE_1466673    	NODE_1321743    	NODE_1340297    	18.8529     	125.0000    	0.0200     	0.0000      	Open  ;
 PIPE_1466678    	NODE_1340297    	NODE_1337139    	12.7463     	125.0000    	0.0200     	0.0000      	Open  ;
 PIPE_1466697    	NODE_1322292    	NODE_1319122    	6.5823      	100.0000    	0.0200     	0.0000      	Open  ;
 PIPE_1466792    	NODE_1322295    	NODE_1341471    	16.3465     	100.0000    	0.0200     	0.0000      	Open  ;
 PIPE_1466797    	NODE_1341471    	NODE_1340788    	12.7127     	100.0000    	0.0200     	0.0000      	Open  ;
 PIPE_1466803    	NODE_1340789    	NODE_3990358    	15.5365     	100.0000    	0.0200     	0.0000      	Open  ;
 PIPE_1466807    	NODE_1340788    	NODE_1338223    	7.7925      	100.0000    	0.0200     	0.0000      	Open  ;
 PIPE_1466808    	NODE_1338223    	NODE_1340789    	9.8781      	100.0000    	0.0200     	0.0000      	Open  ;
 PIPE_1466814    	NODE_1340790    	NODE_1322295    	2.8377      	100.0000    	0.0200     	0.0000      	Open  ;
 PIPE_1466819    	NODE_1340787    	NODE_1322296    	13.1915     	100.0000    	0.0200     	0.0000      	Open  ;
 PIPE_1466820    	NODE_1322296    	NODE_1340790    	15.9153     	100.0000    	0.0200     	0.0000      	Open  ;
 PIPE_1466825    	NODE_1336104    	NODE_1340791    	4.3776      	100.0000    	0.0200     	0.0000      	Open  ;
 PIPE_1466826    	NODE_1340791    	NODE_1340787    	4.4377      	100.0000    	0.0200     	0.0000      	Open  ;
 PIPE_1466831    	NODE_1340786    	NODE_1340792    	17.9853     	100.0000    	0.0200     	0.0000      	Open  ;
 PIPE_1466832    	NODE_1340792    	NODE_1336104    	13.4391     	100.0000    	0.0200     	0.0000      	Open  ;
 PIPE_1466839    	NODE_1331548    	NODE_1340786    	2.4018      	100.0000    	0.0200     	0.0000      	Open  ;
 PIPE_1466844    	NODE_1322294    	NODE_1322574    	10.5015     	100.0000    	0.0200     	0.0000      	Open  ;
 PIPE_1466845    	NODE_1322574    	NODE_1331548    	21.3933     	100.0000    	0.0200     	0.0000      	Open  ;
 PIPE_1466850    	NODE_1340785    	NODE_1336054    	11.4689     	100.0000    	0.0200     	0.0000      	Open  ;
 PIPE_1466851    	NODE_1336054    	NODE_1322294    	3.5815      	100.0000    	0.0200     	0.0000      	Open  ;
 PIPE_1466857    	NODE_1340793    	NODE_1340785    	13.9298     	100.0000    	0.0200     	0.0000      	Open  ;
 PIPE_1466865    	NODE_1340784    	NODE_1340794    	6.9555      	100.0000    	0.0200     	0.0000      	Open  ;
 PIPE_1466866    	NODE_1340794    	NODE_1340793    	19.2011     	100.0000    	0.0200     	0.0000      	Open  ;
 PIPE_1466873    	NODE_1340795    	NODE_1340784    	7.7089      	100.0000    	0.0200     	0.0000      	Open  ;
 PIPE_1466878    	NODE_1340783    	NODE_1322575    	4.1953      	100.0000    	0.0200     	0.0000      	Open  ;
 PIPE_1466879    	NODE_1322575    	NODE_1340795    	16.0999     	100.0000    	0.0200     	0.0000      	Open  ;
 PIPE_1466884    	NODE_1331547    	NODE_1340796    	17.0995     	100.0000    	0.0200     	0.0000      	Open  ;
 PIPE_1466885    	NODE_1340796    	NODE_1340783    	15.8750     	100.0000    	0.0200     	0.0000      	Open  ;
 PIPE_1466891    	NODE_1340797    	NODE_1331547    	8.0584      	100.0000    	0.0200     	0.0000      	Open  ;
 PIPE_1466896    	NODE_1340782    	NODE_1340798    	8.1098      	100.0000    	0.0200     	0.0000      	Open  ;
 PIPE_1466897    	NODE_1340798    	NODE_1340797    	18.0386     	100.0000    	0.0200     	0.0000      	Open  ;
 PIPE_1466904    	NODE_1322576    	NODE_1340782    	10.5520     	100.0000    	0.0200     	0.0000      	Open  ;
 PIPE_1466909    	NODE_1330968    	NODE_1320265    	4.8146      	100.0000    	0.0200     	0.0000      	Open  ;
 PIPE_1466914    	NODE_1336809    	NODE_1330968    	22.2605     	100.0000    	0.0200     	0.0000      	Open  ;
 PIPE_1466920    	NODE_1340781    	NODE_1340799    	10.4794     	100.0000    	0.0200     	0.0000      	Open  ;
 PIPE_1466927    	NODE_1322577    	NODE_1340781    	7.3863      	100.0000    	0.0200     	0.0000      	Open  ;
 PIPE_1466933    	NODE_1340800    	NODE_1322577    	17.4244     	100.0000    	0.0200     	0.0000      	Open  ;
 PIPE_1466939    	NODE_1340801    	NODE_1340800    	15.9183     	100.0000    	0.0200     	0.0000      	Open  ;
 PIPE_1466944    	NODE_1340780    	NODE_1340802    	0.7809      	100.0000    	0.0200     	0.0000      	Open  ;
 PIPE_1466945    	NODE_1340802    	NODE_1340801    	16.1816     	100.0000    	0.0200     	0.0000      	Open  ;
 PIPE_1466950    	NODE_1340779    	NODE_1322578    	11.2348     	100.0000    	0.0200     	0.0000      	Open  ;