[TITLE]
Converted from Epanet to Staci, case name: sanchegy2.spr


[JUNCTIONS]
;ID              	Elev        	Demand      	Pattern         
 NODE_1313111    	234.0376    	0.000000    	                	;
 NODE_1325811    	253.4585    	0.000000    	                	;
 NODE_1316463    	244.8307    	0.002500    	                	;
 NODE_1315291    	264.0687    	0.005417    	                	;
 NODE_1315300    	260.8314    	0.000000    	                	;
 NODE_1312701    	250.8847    	0.000000    	                	;
 NODE_1312366    	237.2516    	0.073333    	                	;
 NODE_1313178    	243.5643    	0.000833    	                	;
 NODE_1326286    	245.0289    	0.000000    	                	;
 NODE_1325200    	270.7895    	0.000000    	                	;
 NODE_1338288    	241.0336    	0.000000    	                	;
 NODE_1324692    	246.0042    	0.004167    	                	;
 NODE_1325169    	258.5151    	0.016250    	                	;
 NODE_1325180    	249.7060    	0.017917    	                	;
 NODE_1317132    	240.6209    	0.006667    	                	;
 NODE_1324050    	247.9310    	0.005417    	                	;
 NODE_1313183    	244.5005    	0.004167    	                	;
 NODE_1312433    	259.1850    	0.002500    	                	;
 NODE_1312019    	245.0379    	0.001667    	                	;
 NODE_1324425    	249.3701    	0.001250    	                	;
 NODE_1312373    	239.5876    	0.000833    	                	;
 NODE_1313861    	255.7300    	0.002500    	                	;
 NODE_1313865    	239.0673    	0.009167    	                	;
 NODE_1325826    	261.0218    	0.006667    	                	;
 NODE_1317260    	249.3969    	0.007083    	                	;
 NODE_1326334    	244.3308    	0.001250    	                	;
 NODE_1317265    	249.0680    	0.002083    	                	;
 NODE_1330546    	255.8426    	0.007083    	                	;
 NODE_1314622    	249.2533    	0.000833    	                	;
 NODE_1326821    	245.3590    	0.009583    	                	;
 NODE_1324458    	231.5316    	0.001250    	                	;
 NODE_1313306    	248.0359    	0.028333    	                	;
 NODE_1315293    	265.7559    	0.003750    	                	;
 NODE_1338112    	242.9000    	0.004167    	                	;
 NODE_1321907    	249.4778    	0.000417    	                	;
 NODE_1311815    	257.5646    	0.012083    	                	;
 NODE_1330325    	265.5809    	0.012083    	                	;
 NODE_1313158    	265.6992    	0.007917    	                	;
 NODE_1324376    	244.3178    	0.010000    	                	;
 NODE_1320064    	243.5143    	0.002083    	                	;
 NODE_1326448    	251.7014    	0.002917    	                	;
 NODE_1315386    	243.7937    	0.002917    	                	;
 NODE_1325909    	250.1982    	0.011250    	                	;
 NODE_1320885    	250.8521    	0.013333    	                	;
 NODE_1332975    	252.3072    	0.016667    	                	;
 NODE_1337925    	244.5301    	0.007917    	                	;
 NODE_1330706    	243.5913    	0.001250    	                	;
 NODE_1330705    	243.6128    	0.009167    	                	;
 NODE_1331668    	243.3944    	0.002500    	                	;
 NODE_1318931    	257.9442    	0.009583    	                	;
 NODE_1317763    	270.6648    	0.000417    	                	;
 NODE_1317788    	245.3454    	0.012083    	                	;
 NODE_1313010    	242.8738    	0.003750    	                	;
 NODE_1311860    	249.4229    	0.015417    	                	;
 NODE_1337673    	255.7773    	0.011250    	                	;
 NODE_1313862    	237.4395    	0.003750    	                	;
 NODE_1325827    	258.9751    	0.000000    	                	;
 NODE_1311854    	252.8607    	0.018750    	                	;
 NODE_1313154    	249.2032    	0.003333    	                	;
 NODE_1326031    	248.9708    	0.010833    	                	;
 NODE_1323760    	258.3869    	0.012083    	                	;
 NODE_1318063    	241.5639    	0.021250    	                	;
 NODE_1324733    	243.7766    	0.010000    	                	;
 NODE_1315299    	266.8445    	0.000000    	                	;
 NODE_1324454    	230.6764    	0.006250    	                	;
 NODE_1312982    	234.8791    	0.000417    	                	;
 NODE_1325298    	254.4628    	0.035000    	                	;
 NODE_1318557    	242.6998    	0.005000    	                	;
 NODE_1325916    	241.1155    	0.004167    	                	;
 NODE_1333789    	258.5876    	0.032083    	                	;
 NODE_1318936    	243.4127    	0.007500    	                	;
 NODE_1313841    	232.7861    	0.012083    	                	;
 NODE_1312369    	241.3562    	0.005000    	                	;
 NODE_1337505    	250.4413    	0.004583    	                	;
 NODE_1321934    	234.1190    	0.006250    	                	;
 NODE_1321672    	247.6825    	0.012500    	                	;
 NODE_1313886    	242.2070    	0.002917    	                	;
 NODE_1327761    	247.1836    	0.005417    	                	;
 NODE_1325618    	242.1983    	0.003750    	                	;
 NODE_1312724    	252.3163    	0.016667    	                	;
 NODE_1313144    	257.9969    	0.000000    	                	;
 NODE_1312748    	238.3227    	0.006250    	                	;
 NODE_1335927    	239.7478    	0.001250    	                	;
 NODE_1315810    	246.8773    	0.008333    	                	;
 NODE_1324735    	242.7400    	0.007500    	                	;
 NODE_1324014    	244.2921    	0.005833    	                	;
 NODE_1337517    	242.8775    	0.010833    	                	;
 NODE_1317826    	255.8362    	0.000000    	                	;
 NODE_1312372    	246.5337    	0.005000    	                	;
 NODE_1326272    	250.7992    	0.000000    	                	;
 NODE_1324520    	243.0739    	0.004583    	                	;
 NODE_1326354    	244.8265    	0.004167    	                	;
 NODE_1312962    	240.2051    	0.025000    	                	;
 NODE_1330745    	244.3398    	0.010417    	                	;
 NODE_1313186    	234.7316    	0.002917    	                	;
 NODE_1315314    	250.8347    	0.024167    	                	;
 NODE_1316663    	238.8660    	0.002083    	                	;
 NODE_1324629    	238.5929    	0.001250    	                	;
 NODE_1313780    	231.5758    	0.000000    	                	;
 NODE_1317454    	242.7953    	0.002500    	                	;
 NODE_1326266    	252.9720    	0.010833    	                	;
 NODE_1312800    	248.7791    	0.002917    	                	;
 NODE_1325646    	254.7697    	0.002500    	                	;
 NODE_1312278    	250.1952    	0.001250    	                	;
 NODE_1312458    	257.4080    	0.002917    	                	;
 NODE_1327186    	237.6540    	0.001667    	                	;
 NODE_1318555    	255.5904    	0.006667    	                	;
 NODE_1318022    	249.1210    	0.012917    	                	;
 NODE_1326449    	251.4168    	0.004583    	                	;
 NODE_1328117    	243.4592    	0.019167    	                	;
 NODE_1317796    	245.4852    	0.009167    	                	;
 NODE_1317828    	243.8149    	0.005000    	                	;
 NODE_1321368    	248.7907    	0.000000    	                	;
 NODE_1318020    	246.1396    	0.006250    	                	;
 NODE_1313837    	246.2786    	0.002500    	                	;
 NODE_1314595    	250.9587    	0.004167    	                	;
 NODE_1337700    	256.7729    	0.001667    	                	;
 NODE_1313785    	235.2954    	0.006667    	                	;
 NODE_1324677    	258.2061    	0.008333    	                	;
 NODE_1338824    	246.6587    	0.004583    	                	;
 NODE_1313526    	244.8263    	0.001250    	                	;
 NODE_1313538    	242.6956    	0.040417    	                	;
 NODE_1315360    	245.5356    	0.005833    	                	;
 NODE_1312539    	256.8862    	0.002083    	                	;
 NODE_1317708    	231.8697    	0.009583    	                	;
 NODE_1316308    	238.4182    	0.008750    	                	;
 NODE_1311805    	271.1103    	0.005000    	                	;
 NODE_1337003    	271.1095    	0.002083    	                	;
 NODE_1330321    	260.7093    	0.000000    	                	;
 NODE_1311830    	260.9303    	0.003333    	                	;
 NODE_1315758    	245.5229    	0.010000    	                	;
 NODE_1316721    	247.4989    	0.017917    	                	;
 NODE_1318519    	259.0806    	0.000417    	                	;
 NODE_1319804    	253.5495    	0.007500    	                	;
 NODE_1316673    	232.4140    	0.002500    	                	;
 NODE_1326284    	246.6665    	0.000000    	                	;
 NODE_1317867    	240.7565    	0.002500    	                	;
 NODE_1321125    	233.6323    	0.007083    	                	;
 NODE_1317077    	243.2707    	0.002917    	                	;
 NODE_1313897    	244.3912    	0.000833    	                	;
 NODE_1315321    	248.7544    	0.000833    	                	;
 NODE_1311817    	251.3605    	0.016250    	                	;
 NODE_1313781    	231.5196    	0.060833    	                	;
 NODE_1319846    	235.1787    	0.002083    	                	;
 NODE_1325882    	250.5180    	0.000000    	                	;
 NODE_1314614    	256.4750    	0.000000    	                	;
 NODE_1312984    	235.5493    	0.003333    	                	;
 NODE_7686856    	241.3366    	0.007500    	                	;
 NODE_10793835   	260.7173    	0.000417    	                	;
 NODE_1325524    	234.9307    	0.005417    	                	;
 NODE_1336270    	249.0755    	0.000417    	                	;
 NODE_1312427    	262.5252    	0.003333    	                	;
 NODE_1325647    	252.4477    	0.000000    	                	;
 NODE_1326842    	242.6591    	0.004167    	                	;
 NODE_1324469    	232.1496    	0.004167    	                	;
 NODE_1337386    	259.6445    	0.003333    	                	;
 NODE_1337608    	259.1066    	0.011250    	                	;
 NODE_1325153    	252.1164    	0.026667    	                	;
 NODE_1325232    	234.9656    	0.000833    	                	;
 NODE_1315806    	232.8164    	0.009167    	                	;
 NODE_1311838    	256.3514    	0.005417    	                	;
 NODE_1313799    	236.2891    	0.025833    	                	;
 NODE_1326268    	250.3625    	0.009167    	                	;
 NODE_1314819    	247.6175    	0.000000    	                	;
 NODE_1317303    	248.4697    	0.005833    	                	;
 NODE_1312547    	269.6169    	0.005833    	                	;
 NODE_1336418    	244.8503    	0.005000    	                	;
 NODE_1316655    	236.4079    	0.005833    	                	;
 NODE_1311839    	255.8621    	0.006250    	                	;
 NODE_1312761    	249.9215    	0.000000    	                	;
 NODE_1317702    	230.3919    	0.002083    	                	;
 NODE_1317070    	239.0019    	0.003333    	                	;
 NODE_1324762    	257.9960    	0.000000    	                	;
 NODE_1312432    	259.2732    	0.006667    	                	;
 NODE_1338404    	246.6848    	0.003750    	                	;
 NODE_1327754    	249.9619    	0.012083    	                	;
 NODE_1312543    	258.6538    	0.004167    	                	;
 NODE_1313330    	238.2590    	0.000000    	                	;
 NODE_1314071    	259.2327    	0.004583    	                	;
 NODE_1324098    	247.8866    	0.000000    	                	;
 NODE_1338344    	273.4787    	0.003333    	                	;
 NODE_1311816    	255.0609    	0.007500    	                	;
 NODE_1313157    	265.8055    	0.003750    	                	;
 NODE_1336194    	269.2040    	0.003333    	                	;
 NODE_1312750    	239.4257    	0.004167    	                	;
 NODE_1313011    	243.3860    	0.005833    	                	;
 NODE_1325644    	260.2549    	0.008750    	                	;
 NODE_1317759    	259.2483    	0.000833    	                	;
 NODE_1338121    	257.1529    	0.012500    	                	;
 NODE_1327948    	243.8841    	0.000000    	                	;
 NODE_1316175    	251.2275    	0.015833    	                	;
 NODE_1326835    	245.3090    	0.005000    	                	;
 NODE_1317710    	232.3431    	0.005417    	                	;
 NODE_1330679    	258.4334    	0.006667    	                	;
 NODE_1324761    	261.6717    	0.000000    	                	;
 NODE_1338827    	246.8974    	0.000000    	                	;
 NODE_1336936    	260.6725    	0.005833    	                	;
 NODE_1317079    	243.9904    	0.000833    	                	;
 NODE_1312015    	245.1262    	0.005417    	                	;
 NODE_1317069    	237.3912    	0.002500    	                	;
 NODE_1317128    	242.3365    	0.003333    	                	;
 NODE_1321915    	249.3259    	0.008750    	                	;
 NODE_1312812    	249.5509    	0.010417    	                	;
 NODE_1312431    	259.8485    	0.003750    	                	;
 NODE_1337687    	246.3849    	0.012917    	                	;
 NODE_1317297    	249.5078    	0.002500    	                	;
 NODE_1315861    	242.9273    	0.002500    	                	;
 NODE_1316312    	242.7125    	0.000000    	                	;
 NODE_1327471    	262.9798    	0.006667    	                	;
 NODE_1322691    	241.0237    	0.001667    	                	;
 NODE_1337004    	259.8252    	0.006250    	                	;
 NODE_1322201    	244.6075    	0.000000    	                	;
 NODE_1326332    	249.3947    	0.007917    	                	;
 NODE_1326358    	244.3454    	0.005417    	                	;
 NODE_1324427    	249.4158    	0.008333    	                	;
 NODE_1312969    	234.6550    	0.002500    	                	;
 NODE_1338096    	242.3800    	0.005417    	                	;
 NODE_1323167    	243.2980    	0.001250    	                	;
 NODE_1325367    	246.5232    	0.009583    	                	;
 NODE_1335863    	232.5524    	0.000833    	                	;
 NODE_1312512    	255.1517    	0.008750    	                	;
 NODE_1326450    	256.7699    	0.000417    	                	;
 NODE_1311843    	252.3198    	0.000833    	                	;
 NODE_1313878    	240.7705    	0.004583    	                	;
 NODE_1312987    	235.7679    	0.002500    	                	;
 NODE_1324698    	250.8054    	0.000000    	                	;
 NODE_1326922    	250.5382    	0.000000    	                	;
 NODE_1312413    	253.3856    	0.003333    	                	;
 NODE_1316324    	250.3264    	0.000000    	                	;
 NODE_1326343    	247.9523    	0.003333    	                	;
 NODE_1321101    	263.0469    	0.000833    	                	;
 NODE_1325918    	253.9164    	0.000000    	                	;
 NODE_1334975    	245.5568    	0.007083    	                	;
 NODE_1328116    	243.6128    	0.002083    	                	;
 NODE_1335843    	252.8679    	0.004167    	                	;
 NODE_1324739    	242.6851    	0.002083    	                	;
 NODE_1312370    	241.9307    	0.000833    	                	;
 NODE_1338117    	249.5366    	0.003333    	                	;
 NODE_1323406    	233.5278    	0.009167    	                	;
 NODE_1327747    	257.9447    	0.005833    	                	;
 NODE_1324303    	264.1839    	0.005000    	                	;
 NODE_1338765    	246.4151    	0.001667    	                	;
 NODE_1320577    	233.5959    	0.002917    	                	;
 NODE_1325616    	241.1558    	0.003750    	                	;
 NODE_1330086    	255.7111    	0.000000    	                	;
 NODE_1318662    	259.0307    	0.000000    	                	;
 NODE_1316323    	253.4680    	0.000000    	                	;
 NODE_1326330    	249.4234    	0.000000    	                	;
 NODE_1324429    	250.8288    	0.000833    	                	;
 NODE_1330904    	238.8551    	0.000000    	                	;
 NODE_1324245    	245.6971    	0.000000    	                	;
 NODE_1313640    	239.9476    	0.001250    	                	;
 NODE_1314597    	242.7521    	0.000000    	                	;
 NODE_1313786    	235.3553    	0.002083    	                	;
 NODE_1337435    	242.8428    	0.004583    	                	;
 NODE_1324428    	251.2313    	0.000000    	                	;
 NODE_1312374    	238.3251    	0.002083    	                	;
 NODE_1312422    	265.8284    	0.000000    	                	;
 NODE_1311857    	252.9411    	0.002083    	                	;
 NODE_1312981    	234.5669    	0.000000    	                	;
 NODE_1318930    	260.0388    	0.002917    	                	;
 NODE_1327229    	251.4953    	0.014583    	                	;
 NODE_1319290    	253.4473    	0.009167    	                	;
 NODE_1338111    	240.6114    	0.115000    	                	;
 NODE_1316028    	250.8276    	0.003333    	                	;
 NODE_1326059    	257.3588    	0.007500    	                	;
 NODE_1322028    	249.7414    	0.002917    	                	;
 NODE_1312817    	249.5608    	0.000000    	                	;
 NODE_1315398    	243.6694    	0.025000    	                	;
 NODE_1316995    	253.2994    	0.010000    	                	;
 NODE_1317270    	244.3531    	0.003750    	                	;
 NODE_1314827    	251.1174    	0.014167    	                	;
 NODE_1331412    	247.8767    	0.003333    	                	;
 NODE_1313312    	254.8098    	0.011250    	                	;
 NODE_1313314    	258.6569    	0.012083    	                	;
 NODE_1313315    	260.6901    	0.007917    	                	;
 NODE_1312544    	259.0030    	0.004167    	                	;
 NODE_1317284    	261.2561    	0.007500    	                	;
 NODE_1317287    	271.3855    	0.004583    	                	;
 NODE_1313893    	244.4372    	0.005417    	                	;
 NODE_1314830    	237.9484    	0.005417    	                	;
 NODE_1338393    	248.0745    	0.000833    	                	;
 NODE_1312050    	249.6662    	0.014167    	                	;
 NODE_1314081    	245.7972    	0.005000    	                	;
 NODE_1327735    	271.5541    	0.003750    	                	;
 NODE_1316855    	232.1351    	0.003333    	                	;
 NODE_1336341    	237.4330    	0.005417    	                	;
 NODE_1311811    	262.9196    	0.005833    	                	;
 NODE_1311828    	262.1866    	0.002083    	                	;
 NODE_1311836    	258.5155    	0.002500    	                	;
 NODE_1332019    	252.9317    	0.003750    	                	;
 NODE_1334937    	250.2293    	0.005417    	                	;
 NODE_1323761    	266.1067    	0.005417    	                	;
 NODE_1325930    	267.5234    	0.002083    	                	;
 NODE_1326611    	250.8225    	0.000000    	                	;
 NODE_1338796    	239.0100    	0.004167    	                	;
 NODE_1328123    	243.8170    	0.015417    	                	;
 NODE_1330702    	243.5876    	0.004167    	                	;
 NODE_1324301    	261.9092    	0.002083    	                	;
 NODE_1335845    	254.0456    	0.007500    	                	;
 NODE_1337931    	246.4559    	0.011250    	                	;
 NODE_1338116    	243.6268    	0.007083    	                	;
 NODE_1325576    	223.2269    	0.003333    	                	;
 NODE_1330543    	261.1523    	0.010833    	                	;
 NODE_1313323    	256.3401    	0.000000    	                	;
 NODE_1326737    	246.3132    	0.005417    	                	;
 NODE_1313890    	244.2511    	0.002083    	                	;
 NODE_1329223    	267.4473    	0.006250    	                	;
 NODE_1314047    	253.7873    	0.020417    	                	;
 NODE_1313327    	243.5237    	0.000000    	                	;
 NODE_1313135    	269.4458    	0.005000    	                	;
 NODE_1324100    	248.8496    	0.003333    	                	;
 NODE_1315315    	249.7437    	0.002083    	                	;
 NODE_1325923    	240.1145    	0.005417    	                	;
 NODE_1324719    	262.7382    	0.013333    	                	;
 NODE_1319801    	252.1558    	0.002917    	                	;
 NODE_1319982    	249.9386    	0.007083    	                	;
 NODE_1313840    	234.3156    	0.005000    	                	;
 NODE_1313647    	256.1741    	0.001250    	                	;
 NODE_1312000    	236.7047    	0.004167    	                	;
 NODE_1312011    	242.7261    	0.012500    	                	;
 NODE_1326267    	251.0289    	0.013750    	                	;
 NODE_1326690    	268.2250    	0.006250    	                	;
 NODE_1337005    	252.9190    	0.007500    	                	;
 NODE_1323920    	251.9076    	0.005000    	                	;
 NODE_1313336    	240.9991    	0.093750    	                	;
 NODE_1313145    	258.4251    	0.001250    	                	;
 NODE_1322214    	248.7624    	0.000000    	                	;
 NODE_1312710    	250.7988    	0.001667    	                	;
 NODE_1317455    	247.3927    	0.006250    	                	;
 NODE_1313008    	243.1047    	0.001250    	                	;
 NODE_1313885    	242.0011    	0.004167    	                	;
 NODE_1324075    	249.5844    	0.000000    	                	;
 NODE_1326735    	245.5320    	0.002917    	                	;
 NODE_1324518    	248.5577    	0.026250    	                	;
 NODE_1331444    	259.1289    	0.002917    	                	;
 NODE_1326348    	240.9760    	0.002083    	                	;
 NODE_1313795    	233.0364    	0.011250    	                	;
 NODE_1321089    	255.5905    	0.002083    	                	;
 NODE_1313815    	239.2785    	0.008750    	                	;
 NODE_1311827    	262.6394    	0.010000    	                	;
 NODE_1311832    	259.9976    	0.001667    	                	;
 NODE_1313163    	240.3210    	0.003333    	                	;
 NODE_1323266    	249.5398    	0.009583    	                	;
 NODE_1324737    	243.0331    	0.007917    	                	;
 NODE_1319314    	259.3207    	0.007917    	                	;
 NODE_1323666    	250.1420    	0.000000    	                	;
 NODE_1315305    	255.8746    	0.008750    	                	;
 NODE_1324471    	232.4844    	0.004167    	                	;
 NODE_1323569    	258.2697    	0.009583    	                	;
 NODE_1323764    	259.5394    	0.008333    	                	;
 NODE_1312760    	244.9022    	0.007500    	                	;
 NODE_1314838    	244.8913    	0.000000    	                	;
 NODE_1326741    	246.8595    	0.005833    	                	;
 NODE_1317310    	250.2946    	0.002500    	                	;
 NODE_1317268    	244.8961    	0.026667    	                	;
 NODE_1313888    	242.8791    	0.005833    	                	;
 NODE_1312488    	260.6190    	0.006667    	                	;
 NODE_1312042    	247.2107    	0.005417    	                	;
 NODE_1318398    	239.9475    	0.000000    	                	;
 NODE_1316174    	256.0202    	0.004167    	                	;
 NODE_1315313    	263.0453    	0.003750    	                	;
 NODE_1327739    	261.2851    	0.007083    	                	;
 NODE_1312765    	250.6199    	0.000000    	                	;
 NODE_1313173    	239.8938    	0.000000    	                	;
 NODE_1313003    	242.3826    	0.003750    	                	;
 NODE_1321129    	236.4745    	0.002917    	                	;
 NODE_1312540    	257.6488    	0.000000    	                	;
 NODE_1336705    	247.7810    	0.000000    	                	;
 NODE_1311848    	261.4517    	0.002500    	                	;
 NODE_1313142    	257.6044    	0.002917    	                	;
 NODE_1337002    	248.7788    	0.000417    	                	;
 NODE_1335950    	247.1447    	0.000000    	                	;
 NODE_1324630    	236.0106    	0.004583    	                	;
 NODE_1327222    	265.5261    	0.000833    	                	;
 NODE_1317315    	249.4101    	0.000000    	                	;
 NODE_1324805    	251.1278    	0.002500    	                	;
 NODE_11002643   	245.4027    	0.000000    	                	;
 NODE_1338815    	248.9631    	0.010000    	                	;
 NODE_1325297    	257.1488    	0.008333    	                	;
 NODE_1317271    	243.8099    	0.003750    	                	;
 NODE_1326816    	242.7270    	0.002917    	                	;
 NODE_1314816    	249.2015    	0.004167    	                	;
 NODE_1336998    	248.7249    	0.005417    	                	;
 NODE_1313311    	254.2096    	0.005417    	                	;
 NODE_1325613    	240.0883    	0.001667    	                	;
 NODE_1312723    	251.0359    	0.004167    	                	;
 NODE_1325344    	253.3185    	0.005000    	                	;
 NODE_1313855    	252.6208    	0.006667    	                	;
 NODE_1322977    	256.9621    	0.015000    	                	;
 NODE_1315754    	238.6318    	0.012500    	                	;
 NODE_1335925    	253.2181    	0.000000    	                	;
 NODE_1335830    	263.9439    	0.002500    	                	;
 NODE_1330316    	268.6799    	0.003750    	                	;
 NODE_1325528    	244.9632    	0.020000    	                	;
 NODE_1313110    	233.6342    	0.028333    	                	;
 NODE_1322184    	243.7517    	0.001250    	                	;
 NODE_1335998    	264.5752    	0.000000    	                	;
 NODE_1313808    	242.2487    	0.005833    	                	;
 NODE_1313184    	244.4837    	0.012500    	                	;
 NODE_1315451    	244.3338    	0.003750    	                	;
 NODE_1324298    	270.0925    	0.004167    	                	;
 NODE_1316674    	233.6070    	0.001250    	                	;
 NODE_1326919    	252.1700    	0.403750    	                	;
 NODE_1336271    	250.2805    	0.002083    	                	;
 NODE_1318401    	254.3898    	0.001250    	                	;
 NODE_1319983    	235.5236    	0.000417    	                	;
 NODE_1317306    	247.0942    	0.002917    	                	;
 NODE_1316336    	259.9293    	0.002917    	                	;
 NODE_1326333    	248.5116    	0.007083    	                	;
 NODE_1313892    	244.2672    	0.001250    	                	;
 NODE_1326840    	243.4216    	0.001667    	                	;
 NODE_1313334    	241.9184    	0.025000    	                	;
 NODE_1330319    	257.6912    	0.003333    	                	;
 NODE_1313100    	232.9415    	0.020417    	                	;
 NODE_1325922    	240.3472    	0.005417    	                	;
 NODE_1334977    	253.5073    	0.037917    	                	;
 NODE_1317784    	245.5454    	0.008750    	                	;
 NODE_1313333    	242.6492    	0.000000    	                	;
 NODE_1315927    	261.8246    	0.000000    	                	;
 NODE_1324246    	255.8673    	0.000000    	                	;
 NODE_1312045    	247.3894    	0.000833    	                	;
 NODE_1326742    	244.3813    	0.008750    	                	;
 NODE_1312803    	248.5815    	0.024167    	                	;
 NODE_1317754    	245.3076    	0.000000    	                	;
 NODE_1322429    	235.2004    	0.000000    	                	;
 NODE_1326786    	236.7844    	0.000000    	                	;
 NODE_1314604    	258.2805    	0.000000    	                	;
 NODE_1314051    	248.2309    	0.011250    	                	;
 NODE_1314052    	247.2627    	0.041250    	                	;
 NODE_1317453    	238.1749    	0.026667    	                	;
 NODE_1336879    	270.8709    	0.000000    	                	;
 NODE_1326279    	254.3424    	0.017500    	                	;
 NODE_1324605    	250.8055    	0.005000    	                	;
 NODE_1326336    	242.7195    	0.005000    	                	;
 NODE_1326337    	242.7673    	0.004583    	                	;
 NODE_1314822    	242.9615    	0.004583    	                	;
 NODE_1324403    	249.4727    	0.005833    	                	;
 NODE_1325812    	266.6473    	0.000000    	                	;
 NODE_1336978    	274.2935    	0.010417    	                	;
 NODE_1315385    	244.8489    	0.007083    	                	;
 NODE_1320043    	263.9879    	0.004583    	                	;
 NODE_1330710    	243.1736    	0.003750    	                	;
 NODE_1322199    	247.0651    	0.005000    	                	;
 NODE_1324451    	228.2923    	0.002917    	                	;
 NODE_1333759    	248.6295    	0.000417    	                	;
 NODE_1323265    	241.2782    	0.005417    	                	;
 NODE_1325784    	260.1836    	0.000000    	                	;
 NODE_1315901    	240.6762    	0.000000    	                	;
 NODE_1325301    	250.6877    	0.004167    	                	;
 NODE_1313863    	237.9802    	0.007083    	                	;
 NODE_1323405    	235.2287    	0.003750    	                	;
 NODE_1337891    	254.9341    	0.002500    	                	;
 NODE_1326907    	240.4901    	0.004583    	                	;
 NODE_1330318    	267.0192    	0.003750    	                	;
 NODE_1330555    	246.2667    	0.007917    	                	;
 NODE_1327450    	230.8912    	0.000000    	                	;
 NODE_1319843    	241.2498    	0.202917    	                	;
 NODE_1326230    	259.3843    	0.002500    	                	;
 NODE_1314826    	249.9336    	0.008333    	                	;
 NODE_1312709    	246.2691    	0.007500    	                	;
 NODE_1324407    	264.2119    	0.008750    	                	;
 NODE_1326824    	245.3726    	0.006667    	                	;
 NODE_1325788    	243.2169    	0.000000    	                	;
 NODE_1314832    	246.0329    	0.004583    	                	;
 NODE_1326819    	245.2168    	0.004583    	                	;
 NODE_1318904    	255.4908    	0.009583    	                	;
 NODE_1312759    	252.4606    	0.027917    	                	;
 NODE_1314074    	261.8088    	0.002500    	                	;
 NODE_1327947    	244.6376    	0.003333    	                	;
 NODE_1317288    	270.2219    	0.001250    	                	;
 NODE_1327225    	256.6892    	0.007500    	                	;
 NODE_1336275    	253.3935    	0.000417    	                	;