[TITLE]
Converted from Epanet to Staci, case name: simasag.spr


[JUNCTIONS]
;ID              	Elev        	Demand      	Pattern         
 NODE_6455900    	160.0572    	0.000000    	                	;
 NODE_6455887    	160.4995    	0.000000    	                	;
 NODE_6459137    	168.3766    	0.000000    	                	;
 NODE_6459087    	161.8243    	0.000000    	                	;
 NODE_6455793    	160.8736    	0.000417    	                	;
 NODE_6455717    	158.4750    	0.001250    	                	;
 NODE_6458989    	162.5706    	0.002083    	                	;
 NODE_6458936    	168.0596    	0.007917    	                	;
 NODE_6458926    	170.4665    	0.000000    	                	;
 NODE_6459006    	165.4088    	0.000000    	                	;
 NODE_6459153    	163.5143    	0.000000    	                	;
 NODE_6455787    	160.6553    	0.000000    	                	;
 NODE_6455760    	160.0724    	0.004583    	                	;
 NODE_6459012    	169.1131    	0.002500    	                	;
 NODE_6458939    	167.1702    	0.025417    	                	;
 NODE_6455909    	158.5407    	0.000000    	                	;
 NODE_6455854    	160.4881    	0.000000    	                	;
 NODE_6455850    	160.4681    	0.000417    	                	;
 NODE_6459032    	165.3823    	0.001250    	                	;
 NODE_6455743    	158.7747    	0.003750    	                	;
 NODE_6455776    	158.5606    	0.000833    	                	;
 NODE_6459114    	163.1955    	0.003333    	                	;
 NODE_6459061    	163.6889    	0.002083    	                	;
 NODE_6455740    	160.0456    	0.002083    	                	;
 NODE_6455726    	157.6196    	0.000000    	                	;
 NODE_6458914    	164.6573    	0.000000    	                	;
 NODE_6455899    	160.0333    	0.000000    	                	;
 NODE_6455829    	160.1275    	0.001667    	                	;
 NODE_6459122    	168.1612    	0.001250    	                	;
 NODE_6455759    	160.0532    	0.001250    	                	;
 NODE_6455721    	158.4956    	0.001667    	                	;
 NODE_6455709    	159.7811    	0.002917    	                	;
 NODE_6455873    	160.0346    	0.000000    	                	;
 NODE_6455868    	160.9961    	0.000833    	                	;
 NODE_6459103    	164.6575    	0.003333    	                	;
 NODE_6459092    	162.6507    	0.003333    	                	;
 NODE_6459007    	163.2824    	0.000000    	                	;
 NODE_6458983    	164.9637    	0.002500    	                	;
 NODE_6458911    	167.6432    	0.000000    	                	;
 NODE_6458918    	163.3035    	0.002500    	                	;
 NODE_6459079    	164.8221    	0.000000    	                	;
 NODE_6458948    	167.6293    	0.000417    	                	;
 NODE_6458956    	169.0453    	0.004167    	                	;
 NODE_6458940    	166.8195    	0.000000    	                	;
 NODE_6458932    	167.6909    	0.000000    	                	;
 NODE_6455883    	160.3993    	0.000833    	                	;
 NODE_6455851    	160.3914    	0.002917    	                	;
 NODE_6455806    	159.9499    	0.000000    	                	;
 NODE_6458985    	167.8861    	0.000000    	                	;
 NODE_6455897    	159.0477    	0.000000    	                	;
 NODE_6459028    	169.7121    	0.002917    	                	;
 NODE_6459036    	166.2031    	0.001250    	                	;
 NODE_6459033    	166.3981    	0.000417    	                	;
 NODE_6455862    	160.9905    	0.000417    	                	;
 NODE_6455852    	160.2986    	0.001250    	                	;
 NODE_6455718    	158.4690    	0.000000    	                	;
 NODE_6455912    	160.8142    	0.000000    	                	;
 NODE_6455919    	156.3088    	0.000000    	                	;
 NODE_6455893    	156.5516    	0.000000    	                	;
 NODE_6459140    	167.0121    	0.000000    	                	;
 NODE_6459118    	159.8135    	0.000000    	                	;
 NODE_6459109    	163.8304    	0.000000    	                	;
 NODE_6459071    	165.5242    	0.002917    	                	;
 NODE_6459060    	168.1686    	0.000417    	                	;
 NODE_6455713    	160.8423    	0.272500    	                	;
 NODE_6459008    	162.7916    	0.000833    	                	;
 NODE_6458970    	166.1275    	0.001250    	                	;
 NODE_6458929    	165.7880    	0.000833    	                	;
 NODE_6455799    	159.9129    	0.000417    	                	;
 NODE_6455797    	159.9962    	0.006250    	                	;
 NODE_6458915    	162.4434    	0.005833    	                	;
 NODE_6455841    	159.9222    	0.001667    	                	;
 NODE_6459088    	161.4558    	0.007500    	                	;
 NODE_6455792    	160.8251    	0.000000    	                	;
 NODE_6455757    	158.6886    	0.011667    	                	;
 NODE_6458959    	169.3126    	0.001667    	                	;
 NODE_6458925    	163.3923    	0.002500    	                	;
 NODE_6459141    	167.5217    	0.000000    	                	;
 NODE_6459121    	168.0319    	0.004583    	                	;
 NODE_6459063    	167.7387    	0.001667    	                	;
 NODE_6459057    	168.6888    	0.003333    	                	;
 NODE_6455805    	159.9158    	0.006667    	                	;
 NODE_6458949    	167.7600    	0.000000    	                	;
 NODE_6459146    	165.7521    	0.000000    	                	;
 NODE_6455834    	160.0104    	0.000000    	                	;
 NODE_6459075    	163.9602    	0.000000    	                	;
 NODE_6459070    	166.0989    	0.000000    	                	;
 NODE_6459029    	169.5072    	0.002917    	                	;
 NODE_6455809    	159.4312    	0.008750    	                	;
 NODE_6458955    	169.3050    	0.004167    	                	;
 NODE_6459024    	166.6742    	0.004583    	                	;
 NODE_6455888    	160.7787    	0.000833    	                	;
 NODE_6455881    	160.3457    	0.005417    	                	;
 NODE_6459049    	168.0372    	0.002500    	                	;
 NODE_6455780    	159.3581    	0.000417    	                	;
 NODE_6459003    	162.5118    	0.000417    	                	;
 NODE_6458981    	163.1024    	0.000000    	                	;
 NODE_6458946    	162.8807    	0.000000    	                	;
 NODE_6458923    	165.8193    	0.000833    	                	;
 NODE_6459044    	171.4670    	0.000000    	                	;
 NODE_6455710    	160.0798    	0.002083    	                	;
 NODE_6455826    	161.5108    	0.000000    	                	;
 NODE_6459089    	161.6760    	0.000000    	                	;
 NODE_6459078    	164.9483    	0.005833    	                	;
 NODE_6458991    	162.5070    	0.000000    	                	;
 NODE_6458951    	167.6933    	0.000417    	                	;
 NODE_6455871    	160.0057    	0.000000    	                	;
 NODE_6459042    	168.2096    	0.000833    	                	;
 NODE_6455885    	160.2625    	0.000417    	                	;
 NODE_6458993    	163.0358    	0.000000    	                	;
 NODE_6458958    	169.2619    	0.003333    	                	;
 NODE_6455803    	159.6825    	0.000417    	                	;
 NODE_6455842    	159.9590    	0.000000    	                	;
 NODE_6455886    	160.4012    	0.000000    	                	;
 NODE_6459031    	166.7238    	0.008333    	                	;
 NODE_6455773    	159.4658    	0.005000    	                	;
 NODE_6455766    	158.8760    	0.000000    	                	;
 NODE_6458916    	162.7172    	0.002083    	                	;
 NODE_6459100    	163.6249    	0.000417    	                	;
 NODE_6458978    	165.2307    	0.002500    	                	;
 NODE_6459015    	167.4768    	0.000000    	                	;
 NODE_6455898    	156.4912    	0.000000    	                	;
 NODE_6455855    	160.5778    	0.002083    	                	;
 NODE_6455849    	160.5241    	0.000833    	                	;
 NODE_6455832    	159.9521    	0.001667    	                	;
 NODE_6459147    	168.9201    	0.000000    	                	;
 NODE_6459102    	163.9816    	0.000000    	                	;
 NODE_6459095    	163.5040    	0.002500    	                	;
 NODE_6455804    	159.8654    	0.005833    	                	;
 NODE_6455802    	159.2511    	0.001667    	                	;
 NODE_6455769    	158.5552    	0.000000    	                	;
 NODE_6455737    	156.9468    	0.019583    	                	;
 NODE_6455735    	156.3795    	0.000000    	                	;
 NODE_6455722    	158.4350    	0.001667    	                	;
 NODE_6455756    	158.2371    	0.000000    	                	;
 NODE_6455914    	161.4465    	0.000000    	                	;
 NODE_6455830    	160.1440    	0.000417    	                	;
 NODE_6458965    	165.9520    	0.000000    	                	;
 NODE_6455884    	160.3072    	0.000417    	                	;
 NODE_6455778    	159.2486    	0.002917    	                	;
 NODE_6455729    	156.7945    	0.000000    	                	;
 NODE_6458910    	164.9952    	0.000000    	                	;
 NODE_6455835    	159.9369    	0.000417    	                	;
 NODE_6459065    	167.1191    	0.000833    	                	;
 NODE_6455821    	161.1392    	0.000000    	                	;
 NODE_6455745    	158.2859    	0.006250    	                	;
 NODE_6458950    	167.4318    	0.001667    	                	;
 NODE_6458919    	163.1710    	0.003333    	                	;
 NODE_6455794    	160.9066    	0.003750    	                	;
 NODE_6458952    	163.8397    	0.008333    	                	;
 NODE_6455767    	158.5619    	0.000000    	                	;
 NODE_6458954    	166.2357    	0.004167    	                	;
 NODE_6459080    	164.6556    	0.000417    	                	;
 NODE_6458933    	167.3459    	0.001667    	                	;
 NODE_6458920    	162.0655    	0.001667    	                	;
 NODE_6459130    	161.5354    	0.000000    	                	;
 NODE_6455903    	158.8430    	0.000000    	                	;
 NODE_6455824    	160.8380    	0.000000    	                	;
 NODE_6458975    	164.0998    	0.003750    	                	;
 NODE_6458962    	166.3060    	0.000000    	                	;
 NODE_6455922    	160.5638    	0.000000    	                	;
 NODE_6455818    	159.3201    	0.002917    	                	;
 NODE_6459123    	168.3614    	0.002500    	                	;
 NODE_6458964    	166.5190    	0.000000    	                	;
 NODE_6459086    	162.0346    	0.002917    	                	;
 NODE_6455765    	158.9284    	0.000000    	                	;
 NODE_6458912    	168.0364    	0.003333    	                	;
 NODE_6459067    	166.5357    	0.003750    	                	;
 NODE_6459051    	169.6471    	0.002500    	                	;
 NODE_6458966    	166.5541    	0.000000    	                	;
 NODE_6455859    	160.3261    	0.002083    	                	;
 NODE_6455825    	160.6294    	0.000000    	                	;
 NODE_6459094    	163.8907    	0.002083    	                	;
 NODE_6459091    	161.7465    	0.002500    	                	;
 NODE_6459052    	170.1248    	0.000000    	                	;
 NODE_6455784    	160.7592    	0.000833    	                	;
 NODE_6459010    	162.8011    	0.002500    	                	;
 NODE_6458988    	166.8468    	0.007500    	                	;
 NODE_6458990    	162.5048    	0.000000    	                	;
 NODE_6459026    	169.1873    	0.002500    	                	;
 NODE_6455813    	160.2419    	0.012500    	                	;
 NODE_6455733    	156.2078    	0.000000    	                	;
 NODE_6455895    	156.5699    	0.000000    	                	;
 NODE_6455866    	161.4700    	0.000000    	                	;
 NODE_6459116    	160.3150    	0.000000    	                	;
 NODE_6459074    	165.3415    	0.000000    	                	;
 NODE_6455796    	160.5867    	0.004583    	                	;
 NODE_6458998    	162.8064    	0.000417    	                	;
 NODE_6459104    	164.1057    	0.000833    	                	;
 NODE_6455827    	160.0691    	0.005417    	                	;
 NODE_6459117    	159.9819    	0.000000    	                	;
 NODE_6459047    	169.0666    	0.002083    	                	;
 NODE_6455902    	156.9493    	0.000000    	                	;
 NODE_6458960    	169.4029    	0.000833    	                	;
 NODE_6455739    	158.4533    	0.000000    	                	;
 NODE_6459133    	162.9571    	0.000000    	                	;
 NODE_6459180    	159.5750    	0.000000    	                	;
 NODE_6455751    	159.0427    	0.007500    	                	;
 NODE_6455711    	159.7750    	0.015000    	                	;
 NODE_6458928    	165.1270    	0.002500    	                	;
 NODE_6455747    	158.9477    	0.000000    	                	;
 NODE_6459097    	162.9942    	0.000000    	                	;
 NODE_6459037    	166.7731    	0.002083    	                	;
 NODE_6455820    	160.7805    	0.005833    	                	;
 NODE_6459021    	169.1491    	0.000417    	                	;
 NODE_6455816    	159.2886    	0.000000    	                	;
 NODE_6458961    	169.3996    	0.003750    	                	;
 NODE_6455901    	160.9788    	0.000000    	                	;
 NODE_6455892    	156.6252    	0.000000    	                	;
 NODE_6459143    	168.9666    	0.000000    	                	;
 NODE_6455817    	159.7389    	0.000833    	                	;
 NODE_6459139    	166.9158    	0.000000    	                	;
 NODE_6455775    	158.5981    	0.002917    	                	;
 NODE_6458986    	167.2956    	0.001667    	                	;
 NODE_6458976    	163.8598    	0.001250    	                	;
 NODE_6458930    	165.9924    	0.006250    	                	;
 NODE_6459125    	168.3561    	0.002917    	                	;
 NODE_6455761    	160.0611    	0.002500    	                	;
 NODE_6458968    	165.9003    	0.004583    	                	;
 NODE_6455844    	160.0819    	0.001667    	                	;
 NODE_6459002    	165.4002    	0.000000    	                	;
 NODE_6459046    	169.1851    	0.000000    	                	;
 NODE_6458913    	164.2018    	0.003750    	                	;
 NODE_6455848    	160.6082    	0.001667    	                	;
 NODE_6455837    	160.0223    	0.004167    	                	;
 NODE_6459073    	166.6261    	0.000000    	                	;
 NODE_6459040    	164.4326    	0.002083    	                	;
 NODE_6455771    	159.3966    	0.002500    	                	;
 NODE_6455768    	158.6005    	0.000000    	                	;
 NODE_6455762    	160.0472    	0.001250    	                	;
 NODE_6455731    	156.9159    	0.000000    	                	;
 NODE_6459019    	166.1631    	0.000000    	                	;
 NODE_6459004    	162.5056    	0.000000    	                	;
 NODE_6458982    	164.4457    	0.000417    	                	;
 NODE_6458937    	167.0715    	0.002917    	                	;
 NODE_6459132    	165.8971    	0.000000    	                	;
 NODE_6455750    	158.9422    	0.002917    	                	;
 NODE_6459048    	168.5404    	0.002083    	                	;
 NODE_6455869    	160.3689    	0.000000    	                	;
 NODE_6455728    	157.1605    	0.000000    	                	;
 NODE_6459066    	166.9222    	0.002500    	                	;
 NODE_6455801    	159.4420    	0.000833    	                	;
 NODE_6455764    	159.3433    	0.001250    	                	;
 NODE_6458947    	162.6408    	0.000000    	                	;
 NODE_6458924    	164.0746    	0.004167    	                	;
 NODE_6455783    	159.5239    	0.005000    	                	;
 NODE_6455732    	156.1426    	0.000000    	                	;
 NODE_6459001    	162.7567    	0.001250    	                	;
 NODE_6459050    	170.1919    	0.005000    	                	;
 NODE_6459128    	164.0591    	0.000000    	                	;
 NODE_6455876    	160.2632    	0.005000    	                	;
 NODE_6459164    	161.3016    	0.000000    	                	;
 NODE_6455795    	160.7981    	0.002500    	                	;
 NODE_6455789    	161.0550    	0.005417    	                	;
 NODE_6459022    	169.3459    	0.000833    	                	;
 NODE_6459017    	167.2014    	0.025417    	                	;
 NODE_6458980    	165.1629    	0.000000    	                	;
 NODE_6458979    	163.6319    	0.002083    	                	;
 NODE_6455831    	160.1304    	0.000417    	                	;
 NODE_6459111    	163.8563    	0.000833    	                	;
 NODE_6459142    	170.1064    	0.000000    	                	;
 NODE_6455882    	160.3175    	0.000000    	                	;
 NODE_6455800    	159.5125    	0.000000    	                	;
 NODE_6455840    	159.9257    	0.001250    	                	;
 NODE_6459138    	168.6418    	0.000000    	                	;
 NODE_6458931    	166.9690    	0.001667    	                	;
 NODE_6459120    	168.0333    	0.000000    	                	;
 NODE_6458963    	166.6345    	0.000833    	                	;
 NODE_6458972    	163.1688    	0.000417    	                	;
 NODE_6459090    	162.0865    	0.000417    	                	;
 NODE_6459011    	169.2227    	0.000000    	                	;
 NODE_6455719    	158.4662    	0.000000    	                	;
 NODE_6455730    	156.9186    	0.000000    	                	;
 NODE_6455861    	161.4425    	0.029583    	                	;
 NODE_6455712    	160.9117    	0.000000    	                	;
 NODE_6458973    	163.3626    	0.000833    	                	;
 NODE_6455781    	159.2973    	0.000000    	                	;
 NODE_6455870    	160.1365    	0.005417    	                	;
 NODE_6455810    	159.3940    	0.009167    	                	;
 NODE_6455865    	160.0167    	0.004583    	                	;
 NODE_6459099    	161.9879    	0.002500    	                	;
 NODE_6459084    	164.1716    	0.003333    	                	;
 NODE_6459083    	164.3880    	0.000000    	                	;
 NODE_6459077    	165.5566    	0.000000    	                	;
 NODE_6459038    	167.2062    	0.000417    	                	;
 NODE_6455791    	160.8834    	0.000000    	                	;
 NODE_6458987    	167.8914    	0.004583    	                	;
 NODE_6459106    	164.9003    	0.002917    	                	;
 NODE_6455846    	160.1005    	0.000000    	                	;
 NODE_6455753    	157.9596    	0.005833    	                	;
 NODE_6459013    	168.8478    	0.003333    	                	;
 NODE_6458969    	166.5964    	0.000833    	                	;
 NODE_6459152    	171.3648    	0.000000    	                	;
 NODE_6455857    	160.4449    	0.000000    	                	;
 NODE_6459005    	163.2057    	0.001250    	                	;
 NODE_6455858    	160.3648    	0.004167    	                	;
 NODE_6455763    	160.0813    	0.000000    	                	;
 NODE_6455853    	160.3642    	0.003750    	                	;
 NODE_6459112    	163.6227    	0.000000    	                	;
 NODE_6455890    	160.6758    	0.000000    	                	;
 NODE_6455924    	160.5006    	0.000000    	                	;
 NODE_6455880    	160.6358    	0.002083    	                	;
 NODE_6455879    	160.2715    	0.000417    	                	;
 NODE_6459069    	166.2035    	0.000833    	                	;
 NODE_6458992    	163.2165    	0.002083    	                	;
 NODE_6455874    	160.6088    	0.000000    	                	;
 NODE_6455839    	160.1048    	0.000000    	                	;
 NODE_6459034    	164.7132    	0.000417    	                	;
 NODE_6459027    	169.7267    	0.003333    	                	;
 NODE_8168525    	163.1899    	0.000000    	                	;
 NODE_6455878    	160.2710    	0.000833    	                	;
 NODE_6455819    	159.2998    	0.000417    	                	;
 NODE_6455706    	160.6455    	0.003333    	                	;
 NODE_6455744    	158.4579    	0.003333    	                	;
 NODE_6458934    	168.2067    	0.002500    	                	;
 NODE_6455847    	160.3257    	0.000000    	                	;
 NODE_6459056    	169.0880    	0.002083    	                	;
 NODE_6455715    	159.5940    	0.005000    	                	;
 NODE_6455812    	159.7498    	0.000417    	                	;
 NODE_6459030    	168.7921    	0.005417    	                	;
 NODE_6455746    	158.1105    	0.000000    	                	;
 NODE_6455863    	160.9209    	0.000833    	                	;
 NODE_6455894    	156.5580    	0.000000    	                	;
 NODE_6455845    	160.1222    	0.000833    	                	;
 NODE_6455838    	160.1204    	0.000833    	                	;
 NODE_6459134    	162.0151    	0.000000    	                	;
 NODE_6459064    	167.5412    	0.000000    	                	;
 NODE_6459054    	170.5904    	0.000000    	                	;
 NODE_6455823    	161.1229    	0.000000    	                	;
 NODE_6455790    	160.8421    	0.001250    	                	;
 NODE_6455758    	160.0668    	0.005417    	                	;
 NODE_6455742    	159.5504    	0.000417    	                	;
 NODE_6455714    	160.2193    	0.000000    	                	;
 NODE_6458994    	163.2023    	0.000833    	                	;
 NODE_6455833    	159.9024    	0.000000    	                	;
 NODE_6459081    	164.4251    	0.004167    	                	;
 NODE_6458917    	161.5880    	0.000417    	                	;
 NODE_6459096    	162.9344    	0.000833    	                	;
 NODE_6455788    	160.7783    	0.000000    	                	;
 NODE_6459018    	166.6497    	0.007917    	                	;
 NODE_6458935    	168.2023    	0.000000    	                	;
 NODE_6458971    	165.9550    	0.000000    	                	;
 NODE_6458922    	163.8387    	0.000000    	                	;
 NODE_6459145    	162.5318    	0.000000    	                	;
 NODE_6459043    	164.3737    	0.000000    	                	;
 NODE_6459035    	168.5923    	0.000000    	                	;
 NODE_6455782    	159.3125    	0.003333    	                	;
 NODE_6459023    	166.6779    	0.000000    	                	;
 NODE_6455752    	159.7668    	0.005417    	                	;
 NODE_6458997    	162.7166    	0.006250    	                	;
 NODE_6455856    	160.6477    	0.001250    	                	;
 NODE_6459119    	168.2998    	0.003750    	                	;
 NODE_6459072    	166.5186    	0.002917    	                	;
 NODE_6459058    	167.7644    	0.003333    	                	;
 NODE_6455741    	159.6198    	0.000000    	                	;
 NODE_6455913    	159.3522    	0.000000    	                	;
 NODE_6455786    	160.8422    	0.000000    	                	;
 NODE_6455916    	160.2680    	0.000000    	                	;
 NODE_6459110    	163.1917    	0.000000    	                	;
 NODE_6459045    	169.5811    	0.000000    	                	;
 NODE_6459014    	168.8247    	0.000417    	                	;
 NODE_6458996    	162.8581    	0.000000    	                	;
 NODE_6455843    	160.0317    	0.000000    	                	;
 NODE_6455779    	159.4884    	0.000000    	                	;
 NODE_6455915    	160.0410    	0.000000    	                	;
 NODE_6455891    	156.5146    	0.000000    	                	;
 NODE_6459108    	163.3321    	0.000000    	                	;
 NODE_6455723    	158.4442    	0.007917    	                	;
 NODE_6458945    	163.2499    	0.000000    	                	;
 NODE_6455908    	158.4473    	0.000000    	                	;
 NODE_6459098    	162.4082    	0.002083    	                	;
 NODE_6455754    	158.2347    	0.002083    	                	;
 NODE_6458957    	169.4285    	0.000833    	                	;
 NODE_6455807    	160.0272    	0.001667    	                	;
 NODE_6458999    	163.0223    	0.001667    	                	;
 NODE_6455877    	160.2729    	0.002917    	                	;
 NODE_6458943    	161.4665    	0.000417    	                	;
 NODE_6458921    	162.3598    	0.002917    	                	;
 NODE_6455770    	158.5544    	0.000000    	                	;
 NODE_6455734    	156.1821    	0.002917    	                	;
 NODE_6455811    	159.5325    	0.002500    	                	;
 NODE_6459055    	170.4007    	0.001667    	                	;
 NODE_6455867    	160.5527    	0.000833    	                	;
 NODE_6455814    	160.0968    	0.000833    	                	;
 NODE_6455860    	160.3114    	0.001250    	                	;
 NODE_6459115    	163.0890    	0.000000    	                	;
 NODE_6459105    	163.4211    	0.004167    	                	;
 NODE_6459101    	162.3006    	0.004583    	                	;
 NODE_6459039    	165.3321    	0.000000    	                	;
 NODE_6455815    	159.2953    	0.002500    	                	;
 NODE_6455774    	158.5151    	0.000000    	                	;
 NODE_6458967    	165.7261    	0.000000    	                	;
 NODE_6458953    	163.9045    	0.016667    	                	;
 NODE_6455875    	160.2730    	0.000417    	                	;
 NODE_6455864    	160.9428    	0.000000    	                	;
 NODE_6455785    	160.5923    	0.004583    	                	;
 NODE_6455720    	158.4763    	0.000000    	                	;
 NODE_6459124    	168.1781    	0.003750    	                	;
 NODE_6459062    	163.1624    	0.000417    	                	;
 NODE_6455727    	157.2853    	0.000000    	                	;
 NODE_6458977    	163.8245    	0.000000    	                	;
 NODE_6458984    	168.0116    	0.000833    	                	;
 NODE_6455736    	156.1293    	0.000000    	                	;
 NODE_6459025    	169.5291    	0.002500    	                	;
 NODE_6455777    	158.6367    	0.000833    	                	;
 NODE_6459093    	164.1726    	0.002083    	                	;
 NODE_6455822    	160.5732    	0.000000    	                	;
 NODE_6459009    	162.4812    	0.008750    	                	;
 NODE_6458944    	162.8199    	0.001250    	                	;
 NODE_6459131    	162.5442    	0.000000    	                	;
 NODE_6455906    	160.8389    	0.000000    	                	;
 NODE_6455889    	160.3388    	0.000417    	                	;
 NODE_6459144    	162.6307    	0.000000    	                	;
 NODE_6459126    	168.0571    	0.000000    	                	;
 NODE_6459082    	164.1502    	0.001667    	                	;
 NODE_6455772    	159.2542    	0.003750    	                	;
 NODE_6459107    	164.7411    	0.000833    	                	;
 NODE_6459076    	165.3307    	0.000000    	                	;
 NODE_6459059    	167.3581    	0.001250    	                	;
 NODE_6455808    	159.2533    	0.000000    	                	;
 NODE_6455708    	159.8045    	0.018333    	                	;
 NODE_6459000    	163.2287    	0.000417    	                	;
 NODE_6458995    	163.1981    	0.005000    	                	;
 NODE_6455748    	158.4536    	0.003333    	                	;
 NODE_6455725    	158.4721    	0.000417    	                	;
 NODE_6459085    	163.9427    	0.000417    	                	;
 NODE_6458927    	164.8104    	0.000000    	                	;
 NODE_6455828    	160.1217    	0.001667    	                	;
 NODE_6455798    	160.0228    	0.006250    	                	;
 NODE_6459113    	163.4014    	0.000000    	                	;
 NODE_6459068    	166.4692    	0.004583    	                	;
 NODE_6458974    	163.5825    	0.001250    	                	;
 NODE_6458938    	169.0440    	0.000000    	                	;
 NODE_6455872    	160.5180    	0.003750    	                	;
 NODE_6455836    	159.8729    	0.000833    	                	;
 NODE_6459053    	169.6102    	0.000000    	                	;
 NODE_6455896    	156.5405    	0.000000    	                	;
 NODE_6459041    	165.0300    	0.003750    	                	;
 NODE_6458942    	161.3143    	0.002083    	                	;
 NODE_6455930    	160.1001    	0.000000    	                	;
 NODE_6629115    	158.3093    	0.000000    	                	;
 NODE_8181339    	158.4371    	0.000000    	                	;
 NODE_8181339_1  	158.4238    	0.000000    	                	;
 NODE_6459183    	168.9010    	0.000000    	                	;
 NODE_8181419    	163.9752    	0.000000    	                	;
 NODE_8181419_1  	164.0026    	0.000000    	                	;
 NODE_6629127    	161.7085    	0.000000    	                	;
 NODE_6453624    	160.0999    	0.000000    	                	;
 NODE_6453624_1  	160.1029    	0.000000    	                	;
 NODE_6456210    	161.9955    	0.000000    	                	;
 NODE_6456210_1  	162.0285    	0.000000    	                	;
 NODE_6456213    	171.3864    	0.000000    	                	;
 NODE_6456213_1  	171.4177    	0.000000    	                	;
 NODE_6455931    	158.1619    	0.000000    	                	;
 NODE_6459163    	162.0768    	0.000000    	                	;
 NODE_6455929    	161.0486    	0.000000    	                	;
 NODE_8181251    	156.5394    	0.000000    	                	;
 NODE_8181251_1  	156.4764    	0.000000    	                	;
 NODE_6459149    	161.7401    	0.000000    	                	;
 NODE_8181435    	163.1463    	0.000000    	                	;
 NODE_8181435_1  	163.1736    	0.000000    	                	;
 NODE_6459159    	161.7123    	0.000000    	                	;
 NODE_6455933    	159.3074    	0.000000    	                	;
 NODE_8181243    	156.5291    	0.000000    	                	;
 NODE_8181243_1  	156.4661    	0.000000    	                	;
 NODE_6456203    	162.0276    	0.000000    	                	;
 NODE_6455926    	159.8893    	0.000000    	                	;
 NODE_6629130    	161.7170    	0.000000    	                	;
 NODE_8181411    	166.8108    	0.000000    	                	;
 NODE_8181411_1  	166.8608    	0.000000    	                	;
 NODE_8181275    	159.8917    	0.000000    	                	;
 NODE_8181275_1  	159.9177    	0.000000    	                	;
 NODE_6459179    	168.4797    	0.000000    	                	;
 NODE_6459178    	162.0246    	0.000000    	                	;