[TITLE]
Converted from Epanet to Staci, case name: sopronkovesd.spr


[JUNCTIONS]
;ID              	Elev        	Demand      	Pattern         
 NODE_1341680    	195.9508    	0.000000    	                	;
 NODE_1327673    	194.8225    	0.000000    	                	;
 NODE_1336055    	195.1022    	0.000000    	                	;
 NODE_1331611    	195.1711    	0.000000    	                	;
 NODE_1340966    	196.6497    	0.000000    	                	;
 NODE_1340978    	197.1193    	0.000000    	                	;
 NODE_1340975    	191.8358    	0.000000    	                	;
 NODE_1328995    	195.4174    	0.000833    	                	;
 NODE_1320261    	194.7727    	0.009167    	                	;
 NODE_1328687    	194.9697    	0.000000    	                	;
 NODE_1328959    	191.4567    	0.004167    	                	;
 NODE_1328970    	190.8285    	0.000000    	                	;
 NODE_1328972    	190.6898    	0.001667    	                	;
 NODE_1328697    	195.2516    	0.000000    	                	;
 NODE_1328976    	191.3894    	0.002917    	                	;
 NODE_1328978    	191.3121    	0.001250    	                	;
 NODE_1331642    	191.0022    	0.004583    	                	;
 NODE_1328987    	190.8892    	0.002083    	                	;
 NODE_1330658    	196.3147    	0.000625    	                	;
 NODE_1322205    	195.2754    	0.001250    	                	;
 NODE_1342219    	196.9017    	0.003750    	                	;
 NODE_1323154    	196.6610    	0.002917    	                	;
 NODE_1330672    	190.8714    	0.015000    	                	;
 NODE_1330674    	190.8352    	0.000417    	                	;
 NODE_1330675    	190.9646    	0.002500    	                	;
 NODE_1327321    	190.6748    	0.001062    	                	;
 NODE_1335759    	198.2330    	0.046404    	                	;
 NODE_1327339    	198.9729    	0.000208    	                	;
 NODE_1320865    	197.7793    	0.005000    	                	;
 NODE_1327144    	196.1821    	0.004167    	                	;
 NODE_1342224    	193.2375    	0.002500    	                	;
 NODE_1328700    	194.9019    	0.000000    	                	;
 NODE_1338226    	195.1594    	0.006250    	                	;
 NODE_1327153    	194.5521    	0.004167    	                	;
 NODE_1320269    	196.8045    	0.000000    	                	;
 NODE_1331054    	197.4636    	0.000833    	                	;
 NODE_1320182    	195.7745    	0.007500    	                	;
 NODE_1327691    	194.9965    	0.002917    	                	;
 NODE_1327897    	194.8752    	0.002500    	                	;
 NODE_1321973    	195.0145    	0.004583    	                	;
 NODE_1327908    	195.1803    	0.000000    	                	;
 NODE_1321977    	199.8416    	0.003750    	                	;
 NODE_1322486    	199.7396    	0.001667    	                	;
 NODE_1328450    	198.6877    	0.002083    	                	;
 NODE_1328457    	200.2545    	0.007208    	                	;
 NODE_1328465    	199.6504    	0.002917    	                	;
 NODE_1331130    	191.3690    	0.002500    	                	;
 NODE_1320241    	194.3142    	0.006667    	                	;
 NODE_1331639    	196.6064    	0.000000    	                	;
 NODE_1328477    	193.1375    	0.005000    	                	;
 NODE_1341489    	199.7416    	0.000000    	                	;
 NODE_1340985    	199.9002    	0.000000    	                	;
 NODE_1340972    	197.5909    	0.000000    	                	;
 NODE_1322501    	191.7838    	0.002917    	                	;
 NODE_1328966    	190.5958    	0.000833    	                	;
 NODE_1337422    	191.0150    	0.000000    	                	;
 NODE_1328971    	190.8450    	0.010000    	                	;
 NODE_1342227    	196.1679    	0.005417    	                	;
 NODE_1328689    	194.9851    	0.000000    	                	;
 NODE_1328693    	195.5262    	0.000000    	                	;
 NODE_1323042    	190.9801    	0.009237    	                	;
 NODE_1323043    	191.0331    	0.001250    	                	;
 NODE_1328985    	190.9742    	0.002917    	                	;
 NODE_1328988    	190.9180    	0.008700    	                	;
 NODE_1342225    	198.0635    	0.004167    	                	;
 NODE_1330655    	193.6901    	0.002083    	                	;
 NODE_1323150    	195.9375    	0.002917    	                	;
 NODE_1323151    	196.4031    	0.000833    	                	;
 NODE_1330660    	196.4759    	0.002083    	                	;
 NODE_1330662    	197.0910    	0.004583    	                	;
 NODE_1328992    	200.0635    	0.003333    	                	;
 NODE_1328993    	197.8429    	0.002917    	                	;
 NODE_1323047    	198.2540    	0.002917    	                	;
 NODE_1342221    	195.9843    	0.005833    	                	;
 NODE_1319809    	196.3154    	0.002500    	                	;
 NODE_1330668    	196.9870    	0.004583    	                	;
 NODE_1327319    	190.3818    	0.001250    	                	;
 NODE_1335757    	191.2457    	0.003333    	                	;
 NODE_1342217    	197.0558    	0.003750    	                	;
 NODE_1327330    	191.5901    	0.003333    	                	;
 NODE_1319486    	191.3664    	0.003333    	                	;
 NODE_1327337    	196.5023    	0.000208    	                	;
 NODE_1321261    	196.6529    	0.001667    	                	;
 NODE_1319487    	198.8998    	0.003750    	                	;
 NODE_1319489    	198.8751    	0.000000    	                	;
 NODE_1319490    	198.8117    	0.004167    	                	;
 NODE_1327348    	198.0845    	0.003333    	                	;
 NODE_1320863    	196.5041    	0.005000    	                	;
 NODE_1327133    	196.1759    	0.000000    	                	;
 NODE_1327142    	196.3790    	0.000833    	                	;
 NODE_1328699    	194.9691    	0.000000    	                	;
 NODE_1327149    	195.0775    	0.001667    	                	;
 NODE_1329118    	194.1672    	0.004167    	                	;
 NODE_1321407    	195.3540    	0.001250    	                	;
 NODE_1323018    	194.9652    	0.000000    	                	;
 NODE_1329734    	195.2133    	0.000000    	                	;
 NODE_1327674    	195.5722    	0.001667    	                	;
 NODE_1327678    	196.8966    	0.001250    	                	;
 NODE_1327682    	196.3979    	0.001250    	                	;
 NODE_1321968    	195.1073    	0.002500    	                	;
 NODE_1328448    	199.4491    	0.002500    	                	;
 NODE_1337862    	199.3792    	0.006250    	                	;
 NODE_1331053    	199.5320    	0.000833    	                	;
 NODE_1331070    	191.2617    	0.003750    	                	;
 NODE_1331610    	199.3591    	0.004583    	                	;
 NODE_1328464    	199.5752    	0.002083    	                	;
 NODE_1329409    	198.0623    	0.005000    	                	;
 NODE_1331077    	197.4770    	0.004583    	                	;
 NODE_1331131    	192.1774    	0.006667    	                	;
 NODE_1320185    	197.6619    	0.003333    	                	;
 NODE_1328472    	194.3569    	0.003333    	                	;
 NODE_1337823    	192.0083    	0.000833    	                	;
 NODE_1336569    	196.9615    	0.001250    	                	;
 NODE_1328484    	194.2132    	0.021217    	                	;
 NODE_1341486    	197.2933    	0.000000    	                	;
 NODE_1341488    	199.5032    	0.000000    	                	;
 NODE_1341691    	191.3348    	0.000000    	                	;
 NODE_1340965    	199.6216    	0.000000    	                	;
 NODE_1322788    	194.3025    	0.002500    	                	;
 NODE_1340976    	194.1605    	0.000000    	                	;
 NODE_1340977    	190.5166    	0.000000    	                	;
 NODE_1328685    	194.9676    	0.000000    	                	;
 NODE_1328686    	194.9477    	0.000000    	                	;
 NODE_1328486    	192.9575    	0.004792    	                	;
 NODE_1328962    	191.3485    	0.002083    	                	;
 NODE_1328969    	191.0153    	0.000625    	                	;
 NODE_1323048    	197.1379    	0.001667    	                	;
 NODE_1328690    	195.1008    	0.000833    	                	;
 NODE_1328695    	195.1879    	0.000000    	                	;
 NODE_1328983    	190.9868    	0.001250    	                	;
 NODE_1320112    	195.8270    	0.005000    	                	;
 NODE_1330663    	197.1512    	0.006667    	                	;
 NODE_1328994    	195.2022    	0.024108    	                	;
 NODE_1319815    	197.1487    	0.007408    	                	;
 NODE_1330667    	195.9357    	0.000000    	                	;
 NODE_1323155    	190.8012    	0.001250    	                	;
 NODE_1330671    	190.7765    	0.000833    	                	;
 NODE_1319481    	191.5257    	0.004583    	                	;
 NODE_1319482    	190.5092    	0.002500    	                	;
 NODE_1319818    	191.3192    	0.002917    	                	;
 NODE_1327323    	191.1121    	0.007083    	                	;
 NODE_1327326    	191.8926    	0.004583    	                	;
 NODE_1327328    	191.8350    	0.000625    	                	;
 NODE_1327329    	191.7600    	0.003333    	                	;
 NODE_1327335    	191.3782    	0.004583    	                	;
 NODE_1327344    	198.8274    	0.001250    	                	;
 NODE_1341688    	191.0054    	0.000000    	                	;
 NODE_1327346    	198.0854    	0.002083    	                	;
 NODE_1320868    	196.0505    	0.002500    	                	;
 NODE_1327155    	194.4431    	0.005000    	                	;
 NODE_1327679    	196.9442    	0.002500    	                	;
 NODE_1321966    	197.6206    	0.009029    	                	;
 NODE_1329735    	198.2643    	0.001667    	                	;
 NODE_1327687    	194.6656    	0.001042    	                	;
 NODE_1327688    	194.9729    	0.011667    	                	;
 NODE_1327902    	194.8547    	0.001250    	                	;
 NODE_1327904    	194.9425    	0.003333    	                	;
 NODE_1327906    	195.1200    	0.001667    	                	;
 NODE_1327910    	199.8515    	0.001250    	                	;
 NODE_1342212    	193.9793    	0.005833    	                	;
 NODE_1322487    	199.1020    	0.002917    	                	;
 NODE_1322488    	199.7418    	0.002083    	                	;
 NODE_1328452    	199.3163    	0.004167    	                	;
 NODE_1328454    	198.7644    	0.002500    	                	;
 NODE_1322489    	199.7665    	0.014583    	                	;
 NODE_1337420    	199.3891    	0.003750    	                	;
 NODE_1328460    	199.3235    	0.001250    	                	;
 NODE_1328461    	199.3648    	0.004167    	                	;
 NODE_1320002    	199.4838    	0.008483    	                	;
 NODE_1331074    	195.1712    	0.000417    	                	;
 NODE_1331076    	197.6604    	0.002917    	                	;
 NODE_1328466    	197.7025    	0.000417    	                	;
 NODE_1337321    	191.3389    	0.000000    	                	;
 NODE_1328469    	194.3458    	0.009167    	                	;
 NODE_1331367    	194.3430    	0.005417    	                	;
 NODE_1342231    	191.2942    	0.000833    	                	;
 NODE_1340986    	197.2791    	0.000000    	                	;
 NODE_1319129    	199.6995    	0.019421    	                	;
 NODE_1331366    	193.6013    	0.000000    	                	;
 NODE_1340969    	194.9027    	0.000000    	                	;
 NODE_1338296    	194.5578    	0.000000    	                	;
 NODE_1340973    	200.2589    	0.002817    	                	;
 NODE_1336106    	195.9747    	0.000246    	                	;
 NODE_1328688    	194.9852    	0.000000    	                	;
 NODE_1328960    	191.4338    	0.002917    	                	;
 NODE_1328967    	190.7210    	0.003333    	                	;
 NODE_1328968    	190.4992    	0.002917    	                	;
 NODE_1328691    	195.0986    	0.000000    	                	;
 NODE_1328694    	195.5437    	0.000000    	                	;
 NODE_1328696    	195.1988    	0.000000    	                	;
 NODE_1328973    	190.6593    	0.000000    	                	;
 NODE_1328975    	191.4983    	0.002917    	                	;
 NODE_1320181    	196.7339    	0.003333    	                	;
 NODE_1336904    	192.4544    	0.002500    	                	;
 NODE_1322997    	196.1698    	0.003750    	                	;
 NODE_1330661    	196.6340    	0.003750    	                	;
 NODE_1330665    	195.3006    	0.000000    	                	;
 NODE_1330666    	195.6175    	0.001042    	                	;
 NODE_1323157    	191.4025    	0.002917    	                	;
 NODE_1342216    	196.0931    	0.001250    	                	;
 NODE_1319484    	191.6840    	0.005000    	                	;
 NODE_1327327    	191.8778    	0.002083    	                	;
 NODE_1327332    	191.2301    	0.000417    	                	;
 NODE_1327342    	198.8034    	0.003333    	                	;
 NODE_1327345    	198.7994    	0.000000    	                	;
 NODE_1327129    	197.0756    	0.007083    	                	;
 NODE_1320030    	196.7616    	0.007500    	                	;
 NODE_1327139    	197.5620    	0.005000    	                	;
 NODE_1320866    	197.4629    	0.000000    	                	;
 NODE_1329732    	197.2636    	0.005000    	                	;
 NODE_1327146    	195.8244    	0.005833    	                	;
 NODE_1327147    	195.7222    	0.006250    	                	;
 NODE_1321191    	194.4750    	0.000000    	                	;
 NODE_1321403    	195.4519    	0.002917    	                	;
 NODE_1321404    	195.0421    	0.005000    	                	;
 NODE_1321405    	194.1706    	0.002083    	                	;
 NODE_1331623    	195.3546    	0.008750    	                	;
 NODE_1319601    	190.5816    	0.003750    	                	;
 NODE_1340982    	195.3285    	0.000000    	                	;
 NODE_1327671    	194.3528    	0.003333    	                	;
 NODE_1327685    	198.1065    	0.007083    	                	;
 NODE_1321971    	195.0779    	0.006667    	                	;
 NODE_1327899    	195.0642    	0.003750    	                	;
 NODE_1327901    	194.9811    	0.000833    	                	;
 NODE_1327909    	199.7363    	0.001250    	                	;
 NODE_1327913    	200.1081    	0.001667    	                	;
 NODE_1327914    	200.1697    	0.003333    	                	;
 NODE_1327915    	200.1479    	0.004583    	                	;
 NODE_1328446    	199.8534    	0.005417    	                	;
 NODE_1328455    	199.9209    	0.005417    	                	;
 NODE_1328458    	199.4827    	0.007917    	                	;
 NODE_1322491    	199.2937    	0.002083    	                	;
 NODE_1331075    	197.4204    	0.000000    	                	;
 NODE_1328463    	199.2995    	0.002917    	                	;
 NODE_1330850    	198.1020    	0.009583    	                	;
 NODE_1331078    	193.6674    	0.000833    	                	;
 NODE_1331132    	194.4562    	0.004167    	                	;
 NODE_1342234    	197.4581    	0.002500    	                	;
 NODE_1328470    	194.3237    	0.002083    	                	;
 NODE_1328471    	194.2995    	0.000000    	                	;
 NODE_1328473    	194.3900    	0.001250    	                	;
 NODE_1322496    	191.7160    	0.005000    	                	;
 NODE_1328478    	193.7645    	0.005000    	                	;
 NODE_1329153    	194.2930    	0.009583    	                	;
 NODE_1322499    	194.2106    	0.003333    	                	;
 NODE_1340987    	196.9615    	0.000000    	                	;
 NODE_1322794    	196.1198    	0.000000    	                	;
 NODE_1322787    	198.9796    	0.000000    	                	;
 NODE_1340970    	197.7793    	0.000000    	                	;
 NODE_1329759    	191.0904    	0.000000    	                	;
 NODE_1341492    	190.9618    	0.000000    	                	;
 NODE_1328961    	191.3736    	0.002917    	                	;
 NODE_1331118    	190.8633    	0.006250    	                	;
 NODE_1337863    	190.5402    	0.003750    	                	;
 NODE_1328692    	195.2633    	0.000000    	                	;
 NODE_1328979    	191.2924    	0.003750    	                	;
 NODE_1323045    	190.7483    	0.002917    	                	;
 NODE_1319997    	191.0120    	0.003333    	                	;
 NODE_1330659    	196.4250    	0.002083    	                	;
 NODE_1323152    	196.8042    	0.005833    	                	;
 NODE_1323153    	195.0294    	0.001250    	                	;
 NODE_1330673    	190.7965    	0.001250    	                	;
 NODE_1327315    	191.4840    	0.000833    	                	;
 NODE_1331632    	191.3783    	0.001250    	                	;
 NODE_1327333    	191.1834    	0.001250    	                	;
 NODE_1335758    	198.2546    	0.030988    	                	;
 NODE_1336437    	196.0142    	0.001667    	                	;
 NODE_1327336    	196.2527    	0.000833    	                	;
 NODE_1336908    	198.9368    	0.004167    	                	;
 NODE_1327340    	198.7722    	0.001250    	                	;
 NODE_1328872    	198.0349    	0.000000    	                	;
 NODE_1327126    	197.7655    	0.000833    	                	;
 NODE_1327132    	196.2724    	0.002500    	                	;
 NODE_1320867    	196.4423    	0.002500    	                	;
 NODE_1327143    	196.2407    	0.002500    	                	;
 NODE_1327154    	194.0986    	0.002083    	                	;
 NODE_1322989    	195.1100    	0.005625    	                	;
 NODE_1341692    	197.3345    	0.000000    	                	;
 NODE_1336932    	195.3681    	0.003750    	                	;
 NODE_1321960    	194.2351    	0.001250    	                	;
 NODE_1327676    	196.0949    	0.002917    	                	;
 NODE_1321963    	197.1689    	0.000000    	                	;
 NODE_1319102    	197.6578    	0.012500    	                	;
 NODE_1327680    	198.0191    	0.001250    	                	;
 NODE_1327683    	196.7593    	0.000000    	                	;
 NODE_1320034    	197.3946    	0.000417    	                	;
 NODE_1331105    	197.9333    	0.000417    	                	;
 NODE_1341487    	199.7171    	0.007562    	                	;
 NODE_1321972    	194.9476    	0.002083    	                	;
 NODE_1329152    	200.0189    	0.006667    	                	;
 NODE_1322492    	199.3429    	0.002917    	                	;
 NODE_1328462    	199.2916    	0.002917    	                	;
 NODE_1331128    	191.2518    	0.001042    	                	;
 NODE_1331129    	191.3778    	0.001667    	                	;
 NODE_1331641    	194.2940    	0.001250    	                	;
 NODE_1328475    	194.1990    	0.002500    	                	;
 NODE_1336774    	199.9119    	0.004167    	                	;
 NODE_1328476    	192.1189    	0.000833    	                	;
 NODE_1322497    	195.6354    	0.004583    	                	;
 NODE_1341679    	194.5279    	0.000000    	                	;
 NODE_1340968    	199.6249    	0.000000    	                	;
 NODE_1340974    	195.4634    	0.000000    	                	;
 NODE_1322791    	190.8176    	0.000000    	                	;
 NODE_1328702    	194.9099    	0.000000    	                	;
 NODE_1340984    	199.9209    	0.004583    	                	;
 NODE_1340983    	196.9495    	0.006471    	                	;
 NODE_1328684    	194.9460    	0.000000    	                	;
 NODE_1328488    	191.8806    	0.004583    	                	;
 NODE_1328964    	191.0453    	0.004583    	                	;
 NODE_1321398    	190.6881    	0.002083    	                	;
 NODE_1322502    	195.2628    	0.001667    	                	;
 NODE_1319325    	195.4686    	0.000000    	                	;
 NODE_1323041    	191.3294    	0.000000    	                	;
 NODE_1328980    	191.2198    	0.001667    	                	;
 NODE_1328981    	190.8317    	0.006250    	                	;
 NODE_1328982    	190.9877    	0.005417    	                	;
 NODE_1328986    	190.9090    	0.002917    	                	;
 NODE_1323149    	193.3608    	0.008750    	                	;
 NODE_1331002    	191.2674    	0.003204    	                	;
 NODE_1320180    	195.0842    	0.002917    	                	;
 NODE_1330670    	190.6975    	0.003333    	                	;
 NODE_1327318    	190.9160    	0.008333    	                	;
 NODE_1319483    	190.9977    	0.009250    	                	;
 NODE_1327322    	191.0448    	0.008750    	                	;
 NODE_1319485    	191.8702    	0.005833    	                	;
 NODE_1319488    	198.9179    	0.002083    	                	;
 NODE_1327341    	198.5871    	0.001042    	                	;
 NODE_1327347    	198.0844    	0.000208    	                	;
 NODE_1320862    	197.4763    	0.000833    	                	;
 NODE_1327134    	197.7605    	0.001667    	                	;
 NODE_1327145    	195.9682    	0.001250    	                	;
 NODE_1329120    	194.9092    	0.000000    	                	;
 NODE_1331102    	195.3036    	0.002500    	                	;
 NODE_1321406    	195.3183    	0.004167    	                	;
 NODE_4577450    	195.3516    	0.001250    	                	;
 NODE_1342222    	196.8472    	0.000000    	                	;
 NODE_1337860    	194.3420    	0.003333    	                	;
 NODE_1321962    	196.3599    	0.002500    	                	;
 NODE_1329408    	195.8416    	0.003750    	                	;
 NODE_1321392    	196.1058    	0.001042    	                	;
 NODE_1327689    	195.1161    	0.004167    	                	;
 NODE_1327690    	195.1155    	0.006667    	                	;
 NODE_1337861    	194.7847    	0.000833    	                	;
 NODE_1327898    	194.7939    	0.001250    	                	;
 NODE_1327905    	195.1290    	0.001250    	                	;
 NODE_1321974    	194.9678    	0.006667    	                	;
 NODE_1327907    	195.1147    	0.000000    	                	;
 NODE_1321975    	199.8474    	0.005000    	                	;
 NODE_1321976    	200.0040    	0.005000    	                	;
 NODE_1328449    	198.9089    	0.002083    	                	;
 NODE_1328451    	198.5495    	0.001667    	                	;
 NODE_1328459    	199.3004    	0.001667    	                	;
 NODE_1331072    	190.6843    	0.004167    	                	;
 NODE_1331073    	195.2154    	0.002500    	                	;
 NODE_1331079    	195.9970    	0.012754    	                	;
 NODE_1322494    	194.6760    	0.001250    	                	;
 NODE_1328468    	194.4604    	0.000833    	                	;
 NODE_1322495    	194.4040    	0.000625    	                	;
 NODE_1320184    	195.1958    	0.006250    	                	;
 NODE_1342230    	196.9565    	0.002083    	                	;
 NODE_1327309    	191.3098    	0.002917    	                	;
 NODE_1330654    	195.8927    	0.001667    	                	;
 NODE_1320600    	192.7284    	0.000417    	                	;
 NODE_1328479    	194.9024    	0.002917    	                	;
 NODE_1330895    	195.9364    	0.017883    	                	;
 NODE_1322789    	198.4639    	0.004079    	                	;
 NODE_1340963    	195.7933    	0.000000    	                	;
 NODE_1340964    	194.8777    	0.000000    	                	;
 NODE_1335596    	196.0269    	0.255175    	                	;
 NODE_1341491    	194.3686    	0.000417    	                	;
 NODE_1341493    	191.2296    	0.000000    	                	;
 NODE_1322795    	190.8149    	0.002083    	                	;
 NODE_1337959    	194.2712    	0.000417    	                	;
 NODE_1322500    	193.5680    	0.003333    	                	;
 NODE_1319817    	191.5776    	0.006250    	                	;
 NODE_1328963    	191.1470    	0.004583    	                	;
 NODE_1342228    	197.2887    	0.005000    	                	;
 NODE_1322273    	197.3118    	0.004167    	                	;
 NODE_1328698    	195.4186    	0.000133    	                	;
 NODE_1328974    	191.5282    	0.001250    	                	;
 NODE_1328977    	191.3916    	0.004583    	                	;
 NODE_1328984    	191.0755    	0.001667    	                	;
 NODE_1328989    	192.2032    	0.004583    	                	;
 NODE_1320183    	195.3851    	0.000833    	                	;
 NODE_1342226    	197.6587    	0.002917    	                	;
 NODE_1330656    	195.9953    	0.004167    	                	;
 NODE_1330657    	196.1121    	0.000833    	                	;
 NODE_1328990    	194.5321    	0.006250    	                	;
 NODE_1323046    	194.1418    	0.003750    	                	;
 NODE_1342220    	196.7181    	0.003750    	                	;
 NODE_1342218    	200.3686    	0.004167    	                	;
 NODE_1323156    	190.9398    	0.000417    	                	;
 NODE_1327320    	190.5223    	0.005417    	                	;
 NODE_1327331    	191.2067    	0.005417    	                	;
 NODE_1319351    	191.3511    	0.003750    	                	;
 NODE_1320845    	191.2588    	0.012917    	                	;
 NODE_1331629    	196.1619    	0.001250    	                	;
 NODE_1342208    	190.8007    	0.000417    	                	;
 NODE_1320861    	197.8697    	0.005417    	                	;
 NODE_1327127    	197.6729    	0.001667    	                	;
 NODE_1327128    	197.5415    	0.007500    	                	;
 NODE_1327135    	197.7698    	0.000000    	                	;
 NODE_1327136    	197.7446    	0.003750    	                	;
 NODE_1327137    	197.7511    	0.000000    	                	;
 NODE_1327140    	197.0409    	0.002083    	                	;
 NODE_1327141    	196.5496    	0.001667    	                	;
 NODE_1342223    	195.4107    	0.004167    	                	;
 NODE_1327152    	195.4554    	0.005000    	                	;
 NODE_1329733    	194.1000    	0.004167    	                	;
 NODE_1321389    	194.7820    	0.003750    	                	;
 NODE_1327156    	195.2776    	0.001667    	                	;
 NODE_1327158    	195.3589    	0.003333    	                	;
 NODE_1321408    	195.3767    	0.002712    	                	;
 NODE_1321961    	194.9813    	0.003333    	                	;
 NODE_1327675    	195.8571    	0.004167    	                	;
 NODE_1327677    	196.5150    	0.004167    	                	;
 NODE_1321964    	198.1430    	0.004583    	                	;
 NODE_1327681    	198.2886    	0.000208    	                	;
 NODE_1321965    	196.5583    	0.003750    	                	;
 NODE_1321967    	194.5035    	0.003333    	                	;
 NODE_1330791    	194.9991    	0.000000    	                	;
 NODE_1321970    	194.5286    	0.006250    	                	;
 NODE_1327900    	195.0172    	0.002500    	                	;
 NODE_1329736    	194.8353    	0.000000    	                	;
 NODE_1329577    	194.8499    	0.005417    	                	;
 NODE_1327911    	200.0280    	0.002083    	                	;
 NODE_1327912    	200.1795    	0.002083    	                	;
 NODE_1331068    	197.2130    	0.001667    	                	;
 NODE_1341490    	199.4881    	0.005000    	                	;
 NODE_1330903    	200.3769    	0.002917    	                	;
 NODE_1342233    	190.9278    	0.005000    	                	;
 NODE_1342232    	195.8145    	0.002500    	                	;
 NODE_1321395    	195.0815    	0.002500    	                	;
 NODE_1337322    	193.9600    	0.003737    	                	;
 NODE_1331640    	196.2398    	0.006250    	                	;
 NODE_1328481    	194.4540    	0.003333    	                	;
 NODE_1328483    	194.2716    	0.006250    	                	;
 NODE_4577502    	196.5196    	0.000000    	                	;
 NODE_1322796    	195.1855    	0.000000    	                	;
 NODE_1337960    	195.1834    	0.000000    	                	;
 NODE_1340967    	196.6055    	0.000000    	                	;
 NODE_1319130    	198.1588    	0.000000    	                	;
 NODE_1322790    	195.2357    	0.002083    	                	;
 NODE_1328701    	195.7318    	0.000000    	                	;
 NODE_1329154    	193.4271    	0.002083    	                	;
 NODE_1328487    	192.5353    	0.005442    	                	;
 NODE_1328965    	190.6923    	0.004167    	                	;
 NODE_1342229    	197.6045    	0.003333    	                	;
 NODE_1322503    	195.2036    	0.000000    	                	;
 NODE_1323044    	191.0105    	0.003750    	                	;
 NODE_1328991    	194.4749    	0.002500    	                	;
 NODE_1330664    	196.6035    	0.002500    	                	;
 NODE_1330669    	197.0754    	0.002083    	                	;
 NODE_1330676    	191.3374    	0.005417    	                	;
 NODE_1327316    	191.2569    	0.001250    	                	;
 NODE_1327317    	191.1620    	0.001687    	                	;
 NODE_1320179    	194.2184    	0.000833    	                	;
 NODE_1327324    	191.3979    	0.005000    	                	;
 NODE_1327325    	191.8819    	0.005833    	                	;
 NODE_1327334    	191.4079    	0.003750    	                	;
 NODE_1342215    	191.5042    	0.005000    	                	;
 NODE_1342214    	195.0824    	0.003750    	                	;
 NODE_1327338    	198.9258    	0.000417    	                	;
 NODE_1327343    	198.8719    	0.001667    	                	;
 NODE_1319134    	193.7541    	0.000833    	                	;
 NODE_1342209    	195.9500    	0.004583    	                	;
 NODE_1323001    	198.0683    	0.000688    	                	;
 NODE_1319816    	197.2896    	0.000417    	                	;
 NODE_1327130    	196.6119    	0.005417    	                	;
 NODE_1327131    	196.4318    	0.003750    	                	;
 NODE_1320864    	197.7353    	0.004583    	                	;
 NODE_1327138    	197.6861    	0.006250    	                	;
 NODE_1327148    	194.8142    	0.005417    	                	;