[TITLE]
Converted from Epanet to Staci, case name: szakov.spr


[JUNCTIONS]
;ID              	Elev        	Demand      	Pattern         
 NODE_1341211    	197.1823    	0.000000    	                	;
 NODE_1339829    	186.6976    	0.005417    	                	;
 NODE_1339987    	198.9014    	0.003333    	                	;
 NODE_1339514    	199.1317    	0.000000    	                	;
 NODE_1330882    	186.0512    	0.000000    	                	;
 NODE_1328502    	187.5274    	0.004583    	                	;
 NODE_1339977    	199.7809    	0.000000    	                	;
 NODE_1342239    	187.5345    	0.000000    	                	;
 NODE_1316158    	198.1396    	0.003750    	                	;
 NODE_1320263    	196.1435    	0.000000    	                	;
 NODE_1331174    	191.2689    	0.004583    	                	;
 NODE_5374874    	191.1584    	0.000000    	                	;
 NODE_1321844    	185.9709    	0.019167    	                	;
 NODE_1339699    	197.8395    	0.000000    	                	;
 NODE_1339236    	196.4576    	0.000000    	                	;
 NODE_1340544    	198.0591    	0.005000    	                	;
 NODE_1342244    	185.5948    	0.000000    	                	;
 NODE_1342753    	188.0754    	0.001667    	                	;
 NODE_1342767    	185.6814    	0.000000    	                	;
 NODE_1328337    	192.5132    	0.000833    	                	;
 NODE_1321193    	201.6758    	0.004167    	                	;
 NODE_1322412    	187.1625    	0.003750    	                	;
 NODE_1322785    	197.2103    	0.000000    	                	;
 NODE_1320754    	185.6543    	0.002083    	                	;
 NODE_1339983    	197.0633    	0.000833    	                	;
 NODE_1340997    	198.1343    	0.000000    	                	;
 NODE_1339831    	186.3525    	0.000417    	                	;
 NODE_1336227    	196.6833    	0.005833    	                	;
 NODE_1328342    	197.1024    	0.001667    	                	;
 NODE_1342276    	191.8889    	0.001250    	                	;
 NODE_1340516    	197.3480    	0.004583    	                	;
 NODE_1341213    	197.2384    	0.000000    	                	;
 NODE_1339266    	184.9041    	0.000417    	                	;
 NODE_1328506    	187.7693    	0.008333    	                	;
 NODE_1328345    	197.6721    	0.002500    	                	;
 NODE_1320444    	191.8982    	0.006667    	                	;
 NODE_1320792    	196.9692    	0.000000    	                	;
 NODE_1322409    	187.7859    	0.000000    	                	;
 NODE_1320118    	184.9899    	0.000000    	                	;
 NODE_1337874    	196.5849    	0.031667    	                	;
 NODE_1340993    	196.2465    	0.007083    	                	;
 NODE_1320790    	196.9134    	0.003750    	                	;
 NODE_1320992    	198.7753    	0.002500    	                	;
 NODE_1340546    	198.4266    	0.006250    	                	;
 NODE_1340548    	198.3420    	0.005417    	                	;
 NODE_1342754    	185.3623    	0.000000    	                	;
 NODE_1342757    	183.5572    	0.000000    	                	;
 NODE_1339806    	186.9317    	0.000000    	                	;
 NODE_1328069    	197.3559    	0.000833    	                	;
 NODE_1322089    	198.3238    	0.000000    	                	;
 NODE_1340533    	195.8669    	0.001250    	                	;
 NODE_1319237    	187.4249    	0.003333    	                	;
 NODE_1340009    	200.3119    	0.001250    	                	;
 NODE_1341001    	197.3902    	0.003750    	                	;
 NODE_1341703    	196.5088    	0.000000    	                	;
 NODE_1342964    	185.6883    	0.000000    	                	;
 NODE_1339250    	185.1400    	0.003333    	                	;
 NODE_1327770    	193.7943    	0.000000    	                	;
 NODE_1328351    	196.9285    	0.003333    	                	;
 NODE_1321841    	184.0552    	0.004583    	                	;
 NODE_1316159    	198.6101    	0.000000    	                	;
 NODE_1340511    	199.2396    	0.000000    	                	;
 NODE_1319902    	197.2773    	0.000000    	                	;
 NODE_1328294    	185.7718    	0.000000    	                	;
 NODE_1340002    	201.4699    	0.001667    	                	;
 NODE_1341725    	197.3525    	0.000000    	                	;
 NODE_1339811    	186.9866    	0.000000    	                	;
 NODE_1322088    	198.2986    	0.000833    	                	;
 NODE_1340551    	198.1298    	0.000000    	                	;
 NODE_1328344    	197.3406    	0.001250    	                	;
 NODE_1321591    	192.3509    	0.000000    	                	;
 NODE_1339703    	197.4976    	0.000000    	                	;
 NODE_1339444    	199.6413    	0.000000    	                	;
 NODE_1339075    	185.2875    	0.000000    	                	;
 NODE_1339248    	185.9377    	0.006250    	                	;
 NODE_1339834    	185.8235    	0.000833    	                	;
 NODE_1319638    	197.9671    	0.000000    	                	;
 NODE_1322415    	187.3713    	0.001667    	                	;
 NODE_1320277    	184.3003    	0.000000    	                	;
 NODE_1336199    	188.7452    	0.002917    	                	;
 NODE_1331351    	191.6600    	0.002500    	                	;
 NODE_1339819    	187.4655    	0.002083    	                	;
 NODE_1320987    	199.8862    	0.002917    	                	;
 NODE_1339073    	185.1975    	0.001667    	                	;
 NODE_1339709    	190.6440    	0.058750    	                	;
 NODE_1340007    	201.0264    	0.002500    	                	;
 NODE_1339271    	185.1438    	0.018333    	                	;
 NODE_1339801    	187.8362    	0.003333    	                	;
 NODE_1320117    	185.2511    	0.000000    	                	;
 NODE_1328284    	185.9719    	0.000000    	                	;
 NODE_1322082    	195.6249    	0.000000    	                	;
 NODE_1319598    	199.7128    	0.002500    	                	;
 NODE_1322091    	198.0372    	0.005000    	                	;
 NODE_1319602    	192.5028    	0.000833    	                	;
 NODE_1320783    	191.8284    	0.000000    	                	;
 NODE_1339240    	184.5569    	0.000417    	                	;
 NODE_1338297    	198.6489    	0.000000    	                	;
 NODE_1321589    	191.7517    	0.000417    	                	;
 NODE_1340520    	195.4415    	0.005000    	                	;
 NODE_1340534    	196.1742    	0.001250    	                	;
 NODE_1322798    	198.1740    	0.002083    	                	;
 NODE_1336090    	198.3692    	0.000833    	                	;
 NODE_1319241    	187.9457    	0.005417    	                	;
 NODE_1316163    	193.2540    	0.000000    	                	;
 NODE_1339503    	203.4982    	0.000000    	                	;
 NODE_1337994    	197.0800    	0.005417    	                	;
 NODE_1341221    	196.9857    	0.000000    	                	;
 NODE_1338669    	187.6535    	0.000000    	                	;
 NODE_1339224    	197.0330    	0.000000    	                	;
 NODE_1341730    	201.1798    	0.007500    	                	;
 NODE_1321852    	185.1055    	0.000000    	                	;
 NODE_1340998    	198.3690    	0.002917    	                	;
 NODE_1320991    	196.7316    	0.000417    	                	;
 NODE_1335740    	197.3137    	0.002083    	                	;
 NODE_1328499    	199.5019    	0.002083    	                	;
 NODE_1340513    	199.5746    	0.002917    	                	;
 NODE_1342268    	192.1458    	0.002917    	                	;
 NODE_1342780    	190.1422    	0.000000    	                	;
 NODE_1340014    	200.1646    	0.001667    	                	;
 NODE_1339791    	186.8894    	0.000000    	                	;
 NODE_1319589    	197.8203    	0.005417    	                	;
 NODE_1337875    	196.3903    	0.000000    	                	;
 NODE_1339219    	198.3617    	0.000417    	                	;
 NODE_1341701    	196.8075    	0.000833    	                	;
 NODE_1328070    	197.4957    	0.002083    	                	;
 NODE_1331038    	184.8975    	0.000000    	                	;
 NODE_1341212    	197.2773    	0.000000    	                	;
 NODE_1341698    	203.3265    	0.000000    	                	;
 NODE_1339807    	186.8202    	0.001250    	                	;
 NODE_1340005    	201.7958    	0.000833    	                	;
 NODE_1340528    	195.7409    	0.001250    	                	;
 NODE_1341217    	201.4740    	0.000000    	                	;
 NODE_1336808    	201.8073    	0.006250    	                	;
 NODE_1342246    	186.9462    	0.000000    	                	;
 NODE_1328362    	198.3213    	0.000000    	                	;
 NODE_1328335    	192.3283    	0.000000    	                	;
 NODE_1342789    	190.2111    	0.000833    	                	;
 NODE_1339996    	201.2214    	0.001667    	                	;
 NODE_1341200    	192.7572    	0.002500    	                	;
 NODE_1341709    	198.3687    	0.003333    	                	;
 NODE_1328340    	193.8534    	0.003750    	                	;
 NODE_1321196    	199.6029    	0.000000    	                	;
 NODE_1322090    	198.1516    	0.000000    	                	;
 NODE_1321847    	184.5351    	0.004167    	                	;
 NODE_1321854    	184.2948    	0.000000    	                	;
 NODE_1336112    	199.3799    	0.010833    	                	;
 NODE_1339696    	198.0253    	0.000000    	                	;
 NODE_1342236    	187.4235    	0.000000    	                	;
 NODE_1342961    	185.6208    	0.010833    	                	;
 NODE_1339232    	199.0432    	0.005000    	                	;
 NODE_1339235    	196.6197    	0.000000    	                	;
 NODE_1342967    	185.2759    	0.002083    	                	;
 NODE_1339274    	183.6779    	0.000000    	                	;
 NODE_1328366    	198.6218    	0.002500    	                	;
 NODE_1321195    	200.0514    	0.002083    	                	;
 NODE_1337876    	196.5551    	0.000000    	                	;
 NODE_1327773    	193.8747    	0.005417    	                	;
 NODE_1327784    	191.1925    	0.005833    	                	;
 NODE_1342776    	192.3834    	0.000000    	                	;
 NODE_1327779    	195.3126    	0.000417    	                	;
 NODE_1342273    	191.8312    	0.003750    	                	;
 NODE_1341712    	197.8683    	0.002917    	                	;
 NODE_1339270    	185.6154    	0.004583    	                	;
 NODE_1339825    	186.9874    	0.005000    	                	;
 NODE_1339826    	186.8955    	0.001250    	                	;
 NODE_1322159    	190.7367    	0.000000    	                	;
 NODE_1339241    	185.3953    	0.000000    	                	;
 NODE_1339242    	185.7735    	0.000000    	                	;
 NODE_1319240    	185.7504    	0.000000    	                	;
 NODE_1342782    	190.0670    	0.000000    	                	;
 NODE_1341696    	196.9293    	0.000000    	                	;
 NODE_1339251    	185.0923    	0.009583    	                	;
 NODE_1337132    	200.4995    	0.005833    	                	;
 NODE_1339804    	187.0641    	0.002917    	                	;
 NODE_1328490    	185.2798    	0.000000    	                	;
 NODE_1320113    	185.6738    	0.000000    	                	;
 NODE_1330766    	196.7932    	0.003333    	                	;
 NODE_1319235    	188.0710    	0.000000    	                	;
 NODE_1339766    	199.8638    	0.000417    	                	;
 NODE_1331658    	197.3571    	0.007083    	                	;
 NODE_1342747    	187.3754    	0.004167    	                	;
 NODE_1320450    	197.8742    	0.000833    	                	;
 NODE_1341209    	197.2073    	0.000000    	                	;
 NODE_1328293    	187.4849    	0.000000    	                	;
 NODE_1339700    	198.4597    	0.003750    	                	;
 NODE_1339975    	200.6014    	0.002500    	                	;
 NODE_1331646    	193.1277    	0.000000    	                	;
 NODE_1340525    	195.5424    	0.002083    	                	;
 NODE_1319137    	203.5766    	0.000000    	                	;
 NODE_1341710    	198.1291    	0.003333    	                	;
 NODE_1322418    	186.6263    	0.004167    	                	;
 NODE_1322155    	191.9203    	0.002500    	                	;
 NODE_1342758    	187.6070    	0.000000    	                	;
 NODE_1331350    	201.8040    	0.000000    	                	;
 NODE_1338673    	187.5825    	0.000000    	                	;
 NODE_1328361    	198.3448    	0.004583    	                	;
 NODE_1339507    	204.6947    	0.001667    	                	;
 NODE_1340542    	198.1009    	0.005833    	                	;
 NODE_1339227    	197.6077    	0.000000    	                	;
 NODE_1320756    	185.8702    	0.000417    	                	;
 NODE_1340522    	195.4872    	0.000833    	                	;
 NODE_1328286    	185.5532    	0.001250    	                	;
 NODE_1339253    	184.6427    	0.000000    	                	;
 NODE_1331659    	197.9477    	0.005417    	                	;
 NODE_1322797    	197.9357    	0.003333    	                	;
 NODE_1322802    	201.3778    	0.004583    	                	;
 NODE_1319642    	201.3609    	0.000833    	                	;
 NODE_1341206    	197.4112    	0.002500    	                	;
 NODE_1328328    	191.6215    	0.002917    	                	;
 NODE_1316166    	195.8434    	0.004167    	                	;
 NODE_1321848    	184.5353    	0.000833    	                	;
 NODE_1319593    	200.6473    	0.000000    	                	;
 NODE_1322268    	201.3432    	0.485417    	                	;
 NODE_1339272    	184.4950    	0.000000    	                	;
 NODE_1341205    	196.8393    	0.004167    	                	;
 NODE_1342235    	188.3162    	0.000417    	                	;
 NODE_1320273    	185.4480    	0.000000    	                	;
 NODE_1342784    	190.8023    	0.000833    	                	;
 NODE_1321588    	192.5165    	0.000000    	                	;
 NODE_1341208    	197.1572    	0.000000    	                	;
 NODE_1339805    	186.9683    	0.000000    	                	;
 NODE_1328367    	199.9538    	0.005000    	                	;
 NODE_1339502    	201.2459    	0.000000    	                	;
 NODE_1339994    	200.1975    	0.004583    	                	;
 NODE_1328323    	190.8284    	0.003750    	                	;
 NODE_1320189    	186.0291    	0.001667    	                	;
 NODE_1341219    	196.8012    	0.003750    	                	;
 NODE_1339225    	197.0289    	0.000000    	                	;
 NODE_1328352    	197.0997    	0.002083    	                	;
 NODE_1320782    	191.6838    	0.001667    	                	;
 NODE_1341708    	198.3958    	0.004167    	                	;
 NODE_1342245    	185.6303    	0.000000    	                	;
 NODE_1342764    	185.8003    	0.010000    	                	;
 NODE_1339796    	187.5770    	0.000000    	                	;
 NODE_1320280    	186.8603    	0.003333    	                	;
 NODE_1339813    	187.1648    	0.000417    	                	;
 NODE_1320745    	184.4454    	0.000000    	                	;
 NODE_1322806    	197.2417    	0.000000    	                	;
 NODE_1340539    	197.7442    	0.000000    	                	;
 NODE_1342790    	190.1536    	0.000000    	                	;
 NODE_1322077    	197.8254    	0.000417    	                	;
 NODE_1342277    	191.7606    	0.000000    	                	;
 NODE_1342777    	192.4315    	0.000000    	                	;
 NODE_1320988    	200.2318    	0.005000    	                	;
 NODE_1342269    	192.1958    	0.000000    	                	;
 NODE_1339077    	185.1086    	0.000000    	                	;
 NODE_1339249    	185.2471    	0.003333    	                	;
 NODE_1328357    	198.0281    	0.000000    	                	;
 NODE_1336891    	191.2008    	0.000000    	                	;
 NODE_1340537    	196.9901    	0.000417    	                	;
 NODE_1342749    	187.4414    	0.002500    	                	;
 NODE_1339254    	184.6232    	0.002917    	                	;
 NODE_1339789    	186.8608    	0.000417    	                	;
 NODE_1328358    	198.3839    	0.002500    	                	;
 NODE_1320780    	191.2666    	0.000000    	                	;
 NODE_1321855    	185.4089    	0.003333    	                	;
 NODE_1337305    	195.7878    	0.003333    	                	;
 NODE_1338204    	186.5286    	0.004167    	                	;
 NODE_1339798    	188.2529    	0.007917    	                	;
 NODE_1341706    	197.8565    	0.004167    	                	;
 NODE_1338519    	193.9847    	0.000000    	                	;
 NODE_1339818    	187.5862    	0.000833    	                	;
 NODE_1330749    	192.1236    	0.000000    	                	;
 NODE_1340536    	196.7736    	0.005833    	                	;
 NODE_1340990    	198.0015    	0.005833    	                	;
 NODE_1340999    	197.4494    	0.002500    	                	;
 NODE_1341720    	196.6689    	0.004583    	                	;
 NODE_1342238    	187.4720    	0.000000    	                	;
 NODE_1339269    	185.6176    	0.002083    	                	;
 NODE_1320443    	196.9600    	0.000000    	                	;
 NODE_1322087    	198.2187    	0.002917    	                	;
 NODE_1320752    	186.2428    	0.000833    	                	;
 NODE_1339217    	197.8868    	0.007083    	                	;
 NODE_1330886    	203.8864    	0.000833    	                	;
 NODE_1342962    	185.5744    	0.001667    	                	;
 NODE_1322781    	194.3950    	0.000833    	                	;
 NODE_1336895    	198.1174    	0.004167    	                	;
 NODE_1336056    	196.7378    	0.020417    	                	;
 NODE_1338207    	187.0440    	0.003750    	                	;
 NODE_1342755    	187.0558    	0.000000    	                	;
 NODE_1327769    	199.4510    	0.000000    	                	;
 NODE_1340535    	196.7077    	0.000000    	                	;
 NODE_1320449    	197.2562    	0.005417    	                	;
 NODE_1328341    	195.4885    	0.001667    	                	;
 NODE_1321851    	184.4906    	0.001667    	                	;
 NODE_1322896    	186.2116    	0.001667    	                	;
 NODE_1331578    	196.5066    	0.002083    	                	;
 NODE_1321197    	198.9489    	0.000833    	                	;
 NODE_1342781    	190.0838    	0.000000    	                	;
 NODE_1341704    	197.4910    	0.006250    	                	;
 NODE_1320439    	202.1785    	0.000000    	                	;
 NODE_1340538    	197.7380    	0.010000    	                	;
 NODE_1339222    	198.6495    	0.000000    	                	;
 NODE_1318187    	193.9828    	0.001250    	                	;
 NODE_1339237    	198.0629    	0.000000    	                	;
 NODE_1339833    	185.9815    	0.000833    	                	;
 NODE_1339255    	184.5074    	0.000000    	                	;
 NODE_1320787    	196.7252    	0.000000    	                	;
 NODE_1336242    	187.4046    	0.000000    	                	;
 NODE_1339238    	198.3126    	0.000000    	                	;
 NODE_1342959    	185.5831    	0.000417    	                	;
 NODE_1327771    	197.8045    	0.000417    	                	;
 NODE_1322084    	196.4551    	0.001250    	                	;
 NODE_1319637    	197.9732    	0.000000    	                	;
 NODE_1341702    	196.6971    	0.008750    	                	;
 NODE_1342267    	191.9447    	0.001667    	                	;
 NODE_1341721    	196.9456    	0.002917    	                	;
 NODE_1319138    	196.8058    	0.000000    	                	;
 NODE_1321846    	184.7333    	0.000000    	                	;
 NODE_1339817    	187.6098    	0.000000    	                	;
 NODE_1339822    	187.2521    	0.000000    	                	;
 NODE_1339226    	197.9379    	0.001667    	                	;
 NODE_1319236    	188.2411    	0.002500    	                	;
 NODE_1339450    	198.7513    	0.000000    	                	;
 NODE_1336749    	187.6191    	0.000833    	                	;
 NODE_1322618    	190.0826    	0.000000    	                	;
 NODE_1339992    	199.2375    	0.000000    	                	;
 NODE_1342275    	192.6850    	0.006667    	                	;
 NODE_1320788    	197.3487    	0.003750    	                	;
 NODE_1331657    	197.7792    	0.000000    	                	;
 NODE_1340541    	197.6979    	0.001667    	                	;
 NODE_1320789    	197.0818    	0.000000    	                	;
 NODE_1340519    	195.4287    	0.000833    	                	;
 NODE_1342744    	184.2980    	0.001250    	                	;
 NODE_1339244    	185.9754    	0.002917    	                	;
 NODE_1336201    	187.1593    	0.000000    	                	;
 NODE_1339706    	193.9364    	0.000000    	                	;
 NODE_1341201    	194.2939    	0.005000    	                	;
 NODE_1340550    	198.0151    	0.001667    	                	;
 NODE_1339832    	185.9996    	0.000000    	                	;
 NODE_1327780    	191.2496    	0.006250    	                	;
 NODE_1342770    	191.4320    	0.003333    	                	;
 NODE_1319903    	193.9064    	0.000000    	                	;
 NODE_1330747    	192.9412    	0.000000    	                	;
 NODE_1322078    	196.6833    	0.003750    	                	;
 NODE_1336052    	197.8517    	0.002917    	                	;
 NODE_1319644    	196.7245    	0.000000    	                	;
 NODE_1339261    	184.4458    	0.025417    	                	;
 NODE_1319239    	186.4804    	0.000000    	                	;
 NODE_1336231    	187.5174    	0.002917    	                	;
 NODE_1341198    	197.3719    	0.000417    	                	;
 NODE_1340000    	200.2618    	0.003333    	                	;
 NODE_1328327    	191.4548    	0.001667    	                	;
 NODE_1337306    	196.9602    	0.002500    	                	;
 NODE_1339499    	201.0844    	0.001250    	                	;
 NODE_1339506    	204.3750    	0.003333    	                	;
 NODE_1341203    	201.8667    	0.009167    	                	;
 NODE_1328365    	198.8510    	0.002500    	                	;
 NODE_1339828    	186.7669    	0.002083    	                	;
 NODE_1341002    	196.9488    	0.000833    	                	;
 NODE_1328500    	197.9320    	0.000000    	                	;
 NODE_1339448    	198.0562    	0.000000    	                	;
 NODE_1342745    	185.4401    	0.006250    	                	;
 NODE_1328343    	197.2406    	0.000000    	                	;
 NODE_1320281    	186.4754    	0.000000    	                	;
 NODE_1339230    	199.2571    	0.007917    	                	;
 NODE_1328329    	191.7549    	0.000000    	                	;
 NODE_1330767    	200.5561    	0.002083    	                	;
 NODE_1319136    	197.2230    	0.002500    	                	;
 NODE_1330776    	186.9652    	0.000000    	                	;
 NODE_1338214    	197.8785    	0.000000    	                	;
 NODE_1340529    	195.6218    	0.005833    	                	;
 NODE_1342756    	184.6415    	0.000000    	                	;
 NODE_1328355    	197.1475    	0.001667    	                	;
 NODE_1342248    	187.6601    	0.000000    	                	;
 NODE_1331644    	197.1976    	0.002083    	                	;
 NODE_1341705    	197.6537    	0.014167    	                	;
 NODE_1341204    	196.8954    	0.000000    	                	;
 NODE_1342247    	187.6023    	0.000000    	                	;
 NODE_1331613    	185.5638    	0.000417    	                	;
 NODE_1339792    	186.7194    	0.000417    	                	;
 NODE_1327772    	195.7406    	0.000000    	                	;
 NODE_1320448    	196.5060    	0.004167    	                	;
 NODE_1322744    	191.3973    	0.000000    	                	;
 NODE_1319233    	187.5540    	0.004167    	                	;
 NODE_1341728    	199.5849    	0.002500    	                	;
 NODE_1340514    	198.1431    	0.000833    	                	;
 NODE_1341207    	200.3504    	0.001250    	                	;
 NODE_1341222    	197.3785    	0.006667    	                	;
 NODE_1341713    	198.3248    	0.000000    	                	;
 NODE_1330797    	199.4934    	0.002083    	                	;
 NODE_1330796    	187.3692    	0.002083    	                	;
 NODE_1328346    	197.3498    	0.001250    	                	;
 NODE_1339830    	186.3614    	0.000417    	                	;
 NODE_1328334    	192.4331    	0.001667    	                	;
 NODE_1336620    	195.9079    	0.000000    	                	;
 NODE_1342270    	191.9205    	0.000000    	                	;
 NODE_1341215    	199.7302    	0.006667    	                	;
 NODE_1341694    	196.4834    	0.005417    	                	;
 NODE_1342242    	186.1781    	0.000000    	                	;
 NODE_1328350    	196.8826    	0.005000    	                	;
 NODE_1328360    	198.4654    	0.002917    	                	;
 NODE_1320440    	199.3775    	0.005417    	                	;
 NODE_1321850    	184.3444    	0.000000    	                	;
 NODE_1338674    	186.1696    	0.000000    	                	;
 NODE_1322086    	197.4313    	0.002083    	                	;
 NODE_1322272    	195.8127    	0.009167    	                	;
 NODE_1342751    	187.0319    	0.000000    	                	;
 NODE_1339794    	187.0913    	0.004167    	                	;
 NODE_1322805    	197.2955    	0.000417    	                	;
 NODE_1339982    	196.7550    	0.002917    	                	;
 NODE_1341199    	198.1442    	0.003333    	                	;
 NODE_1342766    	185.1511    	0.000000    	                	;
 NODE_1339259    	184.6303    	0.000000    	                	;
 NODE_1339835    	185.7662    	0.002500    	                	;
 NODE_1327781    	191.1957    	0.001250    	                	;
 NODE_1328359    	198.2747    	0.000000    	                	;
 NODE_1319231    	186.2357    	0.003750    	                	;
 NODE_10858596   	192.7331    	0.000000    	                	;
 NODE_1339262    	184.3086    	0.000000    	                	;
 NODE_1331612    	187.2074    	0.000417    	                	;
 NODE_1330817    	192.0216    	0.000000    	                	;
 NODE_1339510    	198.4580    	0.000000    	                	;
 NODE_1340518    	196.0789    	0.000417    	                	;
 NODE_1320266    	197.4711    	0.000000    	                	;
 NODE_1330887    	200.6852    	0.000000    	                	;
 NODE_1339985    	197.0239    	0.009167    	                	;
 NODE_1328292    	187.4252    	0.000000    	                	;
 NODE_1342779    	190.7751    	0.000000    	                	;
 NODE_1340545    	198.3794    	0.000833    	                	;
 NODE_1337129    	198.5982    	0.006667    	                	;
 NODE_1335597    	197.2088    	0.000000    	                	;
 NODE_1339978    	200.1612    	0.002917    	                	;
 NODE_1328330    	192.2553    	0.004583    	                	;
 NODE_1319591    	204.0160    	0.000417    	                	;
 NODE_1339505    	203.8539    	0.008333    	                	;
 NODE_1320996    	198.2013    	0.000833    	                	;
 NODE_1340996    	198.1316    	0.002917    	                	;
 NODE_1339239    	184.2897    	0.000000    	                	;
 NODE_1339218    	198.1290    	0.004167    	                	;
 NODE_1322807    	197.1632    	0.000000    	                	;
 NODE_1340988    	197.8919    	0.003333    	                	;
 NODE_1319140    	198.1692    	0.000000    	                	;
 NODE_1339445    	196.5123    	0.000833    	                	;
 NODE_1322410    	186.9585    	0.000833    	                	;
 NODE_1320791    	197.3058    	0.002500    	                	;
 NODE_1339993    	200.4319    	0.005833    	                	;
 NODE_1339252    	184.8419    	0.002083    	                	;
 NODE_1328503    	187.0118    	0.002500    	                	;
 NODE_1336204    	199.4904    	0.007500    	                	;
 NODE_1328297    	187.2776    	0.000000    	                	;
 NODE_1319904    	193.9484    	0.009583    	                	;
 NODE_1339976    	199.9399    	0.000833    	                	;
 NODE_1321194    	201.7775    	0.002083    	                	;
 NODE_1339812    	187.2547    	0.002500    	                	;
 NODE_1328333    	192.4894    	0.002083    	                	;
 NODE_1319141    	197.9236    	0.002083    	                	;
 NODE_1337866    	195.5383    	0.001667    	                	;
 NODE_1336101    	195.5415    	0.000833    	                	;
 NODE_1341722    	197.7875    	0.002083    	                	;
 NODE_1338670    	187.0783    	0.000000    	                	;
 NODE_1328288    	187.6964    	0.000000    	                	;
 NODE_1342963    	185.6344    	0.000833    	                	;
 NODE_1342760    	185.9322    	0.000417    	                	;
 NODE_1327777    	193.9341    	0.000000    	                	;
 NODE_1339814    	187.2690    	0.000000    	                	;
 NODE_1342746    	187.4494    	0.005833    	                	;
 NODE_1340530    	195.6623    	0.007917    	                	;
 NODE_1341214    	197.3098    	0.000000    	                	;
 NODE_1328349    	196.8810    	0.005417    	                	;
 NODE_1322803    	200.2649    	0.000000    	                	;
 NODE_1320998    	197.6238    	0.002917    	                	;
 NODE_1320999    	197.9017    	0.000417    	                	;
 NODE_1336200    	187.2705    	0.000000    	                	;
 NODE_1341716    	198.2789    	0.004583    	                	;
 NODE_1342243    	186.0727    	0.005000    	                	;
 NODE_1328332    	192.0871    	0.002083    	                	;
 NODE_1320188    	186.2861    	0.013333    	                	;
 NODE_1321853    	185.5101    	0.003333    	                	;
 NODE_1342968    	185.2643    	0.001667    	                	;
 NODE_1340010    	200.7960    	0.002500    	                	;
 NODE_1339824    	187.0329    	0.003333    	                	;
 NODE_1316162    	195.8390    	0.001250    	                	;
 NODE_1322079    	195.4573    	0.003333    	                	;