[TITLE]
Converted from Epanet to Staci, case name: tozeggyarmajor.spr


[JUNCTIONS]
;ID              	Elev        	Demand      	Pattern         
 NODE_1318532    	115.9019    	0.000000    	                	;
 NODE_1337382    	116.9101    	0.002917    	                	;
 NODE_1332941    	114.5758    	0.000000    	                	;
 NODE_1332937    	115.9207    	0.000000    	                	;
 NODE_1332165    	115.9325    	0.001250    	                	;
 NODE_1332196    	115.5494    	0.000000    	                	;
 NODE_1332939    	117.0190    	0.000000    	                	;
 NODE_1328140    	114.9780    	0.000000    	                	;
 NODE_1331233    	114.7347    	0.002500    	                	;
 NODE_1332692    	115.5080    	0.000417    	                	;
 NODE_1332163    	116.0693    	0.001667    	                	;
 NODE_1332160    	115.8949    	0.004167    	                	;
 NODE_1332936    	115.9311    	0.000417    	                	;
 NODE_1332935    	115.9214    	0.000417    	                	;
 NODE_1315339    	115.9812    	0.002083    	                	;
 NODE_1332156    	115.3382    	0.001250    	                	;
 NODE_1332915    	115.0645    	0.002500    	                	;
 NODE_1332926    	115.9538    	0.002083    	                	;
 NODE_1315327    	116.2799    	0.000833    	                	;
 NODE_1332934    	115.8858    	0.001667    	                	;
 NODE_1333393    	116.2579    	0.000000    	                	;
 NODE_1315326    	115.2581    	0.000417    	                	;
 NODE_1332699    	114.8060    	0.000417    	                	;
 NODE_1315336    	116.5703    	0.000833    	                	;
 NODE_1332922    	115.2203    	0.001667    	                	;
 NODE_1332161    	115.6504    	0.002917    	                	;
 NODE_1332921    	115.1146    	0.000000    	                	;
 NODE_1337381    	116.5125    	0.002083    	                	;
 NODE_1322220    	114.7029    	0.000000    	                	;
 NODE_1331313    	115.8062    	0.001667    	                	;
 NODE_1330872    	115.0965    	0.000000    	                	;
 NODE_1315847    	114.7187    	0.000000    	                	;
 NODE_1332917    	115.6294    	0.000833    	                	;
 NODE_1315335    	116.0874    	0.003333    	                	;
 NODE_1332913    	114.6562    	0.004583    	                	;
 NODE_1332912    	115.6951    	0.000417    	                	;
 NODE_1333388    	114.2662    	0.000000    	                	;
 NODE_1318531    	115.7514    	0.008750    	                	;
 NODE_1331172    	115.6757    	0.001250    	                	;
 NODE_1338490    	116.2974    	0.000833    	                	;
 NODE_1315332    	116.0551    	0.003750    	                	;
 NODE_1332911    	115.8183    	0.000000    	                	;
 NODE_1332928    	116.2354    	0.000417    	                	;
 NODE_1332195    	115.6953    	0.000000    	                	;
 NODE_1315331    	114.9416    	0.005833    	                	;
 NODE_1315848    	117.7997    	0.000000    	                	;
 NODE_1332924    	115.6424    	0.001250    	                	;
 NODE_1318530    	115.3341    	0.001667    	                	;
 NODE_1332693    	115.7645    	0.003750    	                	;
 NODE_1332925    	115.8183    	0.001250    	                	;
 NODE_1332938    	117.2974    	0.002917    	                	;
 NODE_1338489    	115.4329    	0.003750    	                	;
 NODE_1332697    	114.5092    	0.000417    	                	;
 NODE_1332691    	115.5548    	0.000000    	                	;
 NODE_1332159    	116.0803    	0.002917    	                	;
 NODE_1338073    	115.9184    	0.000833    	                	;
 NODE_1332696    	114.5353    	0.003750    	                	;
 NODE_1332162    	115.8070    	0.000833    	                	;
 NODE_1315330    	114.6242    	0.000000    	                	;
 NODE_1332918    	116.1542    	0.004167    	                	;
 NODE_1332923    	115.3303    	0.000000    	                	;
 NODE_1332700    	114.9949    	0.000417    	                	;
 NODE_1332929    	116.6702    	0.000417    	                	;
 NODE_1332698    	114.5148    	0.007917    	                	;
 NODE_1315340    	115.7616    	0.012083    	                	;
 NODE_1319092    	115.7023    	0.000000    	                	;
 NODE_1332158    	115.6557    	0.000000    	                	;
 NODE_1332930    	116.7780    	0.000833    	                	;
 NODE_1332690    	115.1460    	0.000833    	                	;
 NODE_1332920    	114.8491    	0.000833    	                	;
 NODE_1332695    	114.5757    	0.001250    	                	;
 NODE_1332155    	117.7730    	0.002083    	                	;
 NODE_1337546    	116.2646    	0.001250    	                	;
 NODE_1332927    	116.1870    	0.000417    	                	;
 NODE_1315334    	115.4922    	0.001667    	                	;
 NODE_1332931    	117.4793    	0.000000    	                	;
 NODE_1315333    	115.0083    	0.000000    	                	;
 NODE_1315329    	114.7639    	0.002083    	                	;
 NODE_1331307    	114.8894    	0.001667    	                	;
 NODE_1332916    	115.2346    	0.000417    	                	;
 NODE_1333390    	114.6536    	0.000000    	                	;
 NODE_1332933    	116.1658    	0.002083    	                	;
 NODE_1319093    	115.6036    	0.004167    	                	;
 NODE_1333389    	115.9980    	0.000000    	                	;
 NODE_1315328    	114.6289    	0.004583    	                	;
 NODE_1315337    	117.8323    	0.004167    	                	;
 NODE_1333391    	116.2958    	0.000000    	                	;
 NODE_1332694    	114.5652    	0.000417    	                	;
 NODE_1315338    	116.7467    	0.004167    	                	;
 NODE_1333375    	114.2712    	0.000000    	                	;
 NODE_1332919    	114.6892    	0.002083    	                	;
 NODE_1332914    	114.7022    	0.000000    	                	;
 NODE_1333392    	115.1916    	0.000000    	                	;
 NODE_1332164    	115.8765    	0.003333    	                	;
 NODE_1331306    	115.9661    	0.000000    	                	;
 NODE_1322225    	115.8790    	0.000000    	                	;
 NODE_1332932    	117.5859    	0.008750    	                	;
 NODE_1328139    	114.2854    	0.000417    	                	;
 NODE_1318544    	115.6343    	0.000000    	                	;
 NODE_1332157    	115.3336    	0.000417    	                	;
 NODE_1321174    	115.7390    	0.002917    	                	;
 NODE_10574      	116.2086    	0.000000    	                	;
 NODE_10574_1    	116.2040    	0.000000    	                	;
 NODE_10580      	115.4314    	0.000000    	                	;
 NODE_10580_1    	115.4160    	0.000000    	                	;
 NODE_10579      	117.7338    	0.000000    	                	;
 NODE_10579_1    	117.7238    	0.000000    	                	;
 NODE_1343604    	117.7361    	0.000000    	                	;
 NODE_1343602    	117.0327    	0.000000    	                	;
 NODE_1343606    	116.2092    	0.000000    	                	;
 NODE_10578      	117.7384    	0.000000    	                	;
 NODE_10578_1    	117.7284    	0.000000    	                	;
 NODE_3964723    	117.3962    	0.000000    	                	;
 NODE_1343601    	117.0159    	0.000000    	                	;
 NODE_1343609    	115.4301    	0.000000    	                	;
 NODE_10573      	116.2082    	0.000000    	                	;
 NODE_10573_1    	116.2035    	0.000000    	                	;
 NODE_10566      	117.0173    	0.000000    	                	;
 NODE_10566_1    	117.0480    	0.000000    	                	;

[RESERVOIRS]
;ID              	Head        	Pattern         
 PRESS_99        	143.5431    	                

[TANKS]
;ID             	Elevation   	InitLevel   	MinLevel    	MaxLevel    	Diameter    	MinVol      	VolCurve
 POOL_228        	141.6600    	2.0800      	0.0000      	1000.0000   	4.5016      	0.0000      	                	

[PIPES]
;ID             	Node1           	Node2           	Length      	Diameter    	Roughness   	MinorLoss   	Status
 PIPE_326590     	POOL_228        	NODE_3964723    	121.8524    	63.0000     	0.0200     	0.0000      	Open  ;
 PIPE_326849     	POOL_228        	NODE_1343601    	24.3957     	110.0000    	0.0200     	0.0000      	Open  ;
 PIPE_326852     	PRESS_99        	NODE_1343602    	2.2547      	80.0000     	0.0200     	0.0000      	Open  ;
 PIPE_1420965    	NODE_1332697    	NODE_1328139    	22.3623     	110.0000    	0.0200     	0.0000      	Open  ;
 PIPE_1420970    	NODE_1332698    	NODE_1332697    	0.4807      	110.0000    	0.0200     	0.0000      	Open  ;
 PIPE_1420975    	NODE_1322220    	NODE_1332698    	23.4807     	110.0000    	0.0200     	0.0000      	Open  ;
 PIPE_1420984    	NODE_1332699    	NODE_1315329    	12.1938     	110.0000    	0.0200     	0.0000      	Open  ;
 PIPE_1420985    	NODE_1315329    	NODE_1322220    	8.3880      	110.0000    	0.0200     	0.0000      	Open  ;
 PIPE_1420991    	NODE_1332700    	NODE_1332699    	14.1330     	110.0000    	0.0200     	0.0000      	Open  ;
 PIPE_1420996    	NODE_1330872    	NODE_1332700    	13.2691     	110.0000    	0.0200     	0.0000      	Open  ;
 PIPE_1421016    	NODE_1332913    	NODE_1315330    	3.8212      	110.0000    	0.0200     	0.0000      	Open  ;
 PIPE_1421021    	NODE_1332914    	NODE_1332913    	14.0009     	110.0000    	0.0200     	0.0000      	Open  ;
 PIPE_1421026    	NODE_1331233    	NODE_1332914    	4.9794      	110.0000    	0.0200     	0.0000      	Open  ;
 PIPE_1421031    	NODE_1315331    	NODE_1331233    	13.5291     	110.0000    	0.0200     	0.0000      	Open  ;
 PIPE_1421036    	NODE_1332915    	NODE_1315331    	8.0387      	110.0000    	0.0200     	0.0000      	Open  ;
 PIPE_1421042    	NODE_1332916    	NODE_1332915    	12.0445     	110.0000    	0.0200     	0.0000      	Open  ;
 PIPE_1421057    	NODE_1315332    	NODE_1338073    	12.6807     	110.0000    	0.0200     	0.0000      	Open  ;
 PIPE_1421062    	NODE_1332918    	NODE_1315332    	12.8650     	110.0000    	0.0200     	0.0000      	Open  ;
 PIPE_1421072    	NODE_1332920    	NODE_1332919    	18.6843     	110.0000    	0.0200     	0.0000      	Open  ;
 PIPE_1421077    	NODE_1315333    	NODE_1332920    	20.2565     	110.0000    	0.0200     	0.0000      	Open  ;
 PIPE_1421481    	NODE_1315847    	NODE_1331307    	19.4444     	110.0000    	0.0200     	0.0000      	Open  ;
 PIPE_1421637    	NODE_1328139    	NODE_1333375    	1.3815      	110.0000    	0.0200     	0.0000      	Open  ;
 PIPE_1421638    	NODE_1333375    	NODE_1333388    	0.4780      	110.0000    	0.0200     	0.0000      	Open  ;
 PIPE_1422093    	NODE_1332921    	NODE_1315333    	19.2063     	110.0000    	0.0200     	0.0000      	Open  ;
 PIPE_1422103    	NODE_1332923    	NODE_1332922    	20.0011     	110.0000    	0.0200     	0.0000      	Open  ;
 PIPE_1422108    	NODE_1315334    	NODE_1332923    	19.6726     	110.0000    	0.0200     	0.0000      	Open  ;
 PIPE_1422113    	NODE_1332924    	NODE_1315334    	17.2280     	110.0000    	0.0200     	0.0000      	Open  ;
 PIPE_1422119    	NODE_1332925    	NODE_1332924    	20.1673     	110.0000    	0.0200     	0.0000      	Open  ;
 PIPE_1422124    	NODE_1332926    	NODE_1332925    	19.9157     	110.0000    	0.0200     	0.0000      	Open  ;
 PIPE_1422129    	NODE_1315335    	NODE_1332926    	16.2346     	110.0000    	0.0200     	0.0000      	Open  ;
 PIPE_1422135    	NODE_1332927    	NODE_1315335    	16.1149     	110.0000    	0.0200     	0.0000      	Open  ;
 PIPE_1422140    	NODE_1332928    	NODE_1343606    	14.2052     	110.0000    	0.0200     	0.0000      	Open  ;
 PIPE_1422154    	NODE_1332929    	NODE_1315336    	33.0368     	110.0000    	0.0200     	0.0000      	Open  ;
 PIPE_1422159    	NODE_1332930    	NODE_1332929    	11.0150     	110.0000    	0.0200     	0.0000      	Open  ;
 PIPE_1422164    	NODE_1337382    	NODE_1332930    	13.4882     	110.0000    	0.0200     	0.0000      	Open  ;
 PIPE_1422173    	NODE_1332931    	NODE_1343604    	21.9427     	110.0000    	0.0200     	0.0000      	Open  ;
 PIPE_1422174    	NODE_1343601    	NODE_1332931    	38.4756     	110.0000    	0.0200     	0.0000      	Open  ;
 PIPE_1422188    	NODE_1337546    	NODE_1315338    	34.0160     	110.0000    	0.0200     	0.0000      	Open  ;
 PIPE_1422192    	NODE_1343609    	NODE_1332933    	61.0908     	110.0000    	0.0200     	0.0000      	Open  ;
 PIPE_1422203    	NODE_1315339    	NODE_1332934    	27.4016     	110.0000    	0.0200     	0.0000      	Open  ;
 PIPE_1422214    	NODE_1332935    	NODE_1332936    	2.1969      	110.0000    	0.0200     	0.0000      	Open  ;
 PIPE_1422215    	NODE_1332936    	NODE_1331306    	8.0053      	110.0000    	0.0200     	0.0000      	Open  ;
 PIPE_1422221    	NODE_1332937    	NODE_1332935    	9.6314      	110.0000    	0.0200     	0.0000      	Open  ;
 PIPE_1422227    	NODE_1315340    	NODE_1332937    	14.0530     	110.0000    	0.0200     	0.0000      	Open  ;
 PIPE_1422233    	NODE_1331307    	NODE_1319093    	43.2280     	110.0000    	0.0200     	0.0000      	Open  ;
 PIPE_1422234    	NODE_1319093    	NODE_1315340    	17.7482     	110.0000    	0.0200     	0.0000      	Open  ;
 PIPE_1422239    	NODE_1315338    	NODE_1332938    	60.6357     	110.0000    	0.0200     	0.0000      	Open  ;
 PIPE_1422240    	NODE_1332938    	NODE_1332932    	36.2074     	110.0000    	0.0200     	0.0000      	Open  ;
 PIPE_1422614    	NODE_1343602    	NODE_1332939    	2.9550      	80.0000     	0.0200     	0.0000      	Open  ;
 PIPE_1422645    	NODE_1331306    	NODE_1333389    	46.5564     	110.0000    	0.0200     	0.0000      	Open  ;
 PIPE_1422646    	NODE_1333389    	NODE_1315339    	40.9174     	110.0000    	0.0200     	0.0000      	Open  ;
 PIPE_1422651    	NODE_1315330    	NODE_1333390    	7.2799      	110.0000    	0.0200     	0.0000      	Open  ;
 PIPE_1422657    	NODE_1338490    	NODE_1333391    	0.9313      	110.0000    	0.0200     	0.0000      	Open  ;
 PIPE_1422663    	NODE_1332922    	NODE_1333392    	5.2349      	110.0000    	0.0200     	0.0000      	Open  ;
 PIPE_1422664    	NODE_1333392    	NODE_1332921    	13.8953     	110.0000    	0.0200     	0.0000      	Open  ;
 PIPE_1422670    	NODE_1315337    	NODE_1315848    	2.7627      	110.0000    	0.0200     	0.0000      	Open  ;
 PIPE_1422671    	NODE_1315848    	NODE_1337382    	95.6358     	110.0000    	0.0200     	0.0000      	Open  ;
 PIPE_1422676    	NODE_1332933    	NODE_1333393    	12.2026     	110.0000    	0.0200     	0.0000      	Open  ;
 PIPE_1422677    	NODE_1333393    	NODE_1337546    	0.4739      	110.0000    	0.0200     	0.0000      	Open  ;
 PIPE_1422722    	NODE_1332155    	NODE_1315337    	30.7156     	110.0000    	0.0200     	0.0000      	Open  ;
 PIPE_1422727    	NODE_1332156    	NODE_1332916    	4.5055      	110.0000    	0.0200     	0.0000      	Open  ;
 PIPE_1422733    	NODE_1332157    	NODE_1330872    	29.5024     	110.0000    	0.0200     	0.0000      	Open  ;
 PIPE_1422739    	NODE_1318530    	NODE_1332157    	0.0284      	110.0000    	0.0200     	0.0000      	Open  ;
 PIPE_1422795    	NODE_1332160    	NODE_1322225    	3.0712      	110.0000    	0.0200     	0.0000      	Open  ;
 PIPE_1422807    	NODE_1321174    	NODE_1318531    	7.2408      	110.0000    	0.0200     	0.0000      	Open  ;
 PIPE_1422812    	NODE_1332158    	NODE_1332161    	0.9625      	110.0000    	0.0200     	0.0000      	Open  ;
 PIPE_1422813    	NODE_1332161    	NODE_1318530    	18.1080     	110.0000    	0.0200     	0.0000      	Open  ;
 PIPE_1422818    	NODE_1332911    	NODE_1332162    	1.1971      	110.0000    	0.0200     	0.0000      	Open  ;
 PIPE_1422819    	NODE_1332162    	NODE_1332158    	17.2453     	110.0000    	0.0200     	0.0000      	Open  ;
 PIPE_1422825    	NODE_1318532    	NODE_1332911    	17.2456     	110.0000    	0.0200     	0.0000      	Open  ;
 PIPE_1422830    	NODE_1332159    	NODE_1332163    	1.0057      	110.0000    	0.0200     	0.0000      	Open  ;
 PIPE_1422831    	NODE_1332163    	NODE_1318532    	21.9175     	110.0000    	0.0200     	0.0000      	Open  ;
 PIPE_1422836    	NODE_1322225    	NODE_1332164    	0.4860      	110.0000    	0.0200     	0.0000      	Open  ;
 PIPE_1422837    	NODE_1332164    	NODE_1332159    	19.2906     	110.0000    	0.0200     	0.0000      	Open  ;
 PIPE_1422842    	NODE_1318531    	NODE_1332165    	10.9354     	110.0000    	0.0200     	0.0000      	Open  ;
 PIPE_1422843    	NODE_1332165    	NODE_1332160    	7.2844      	110.0000    	0.0200     	0.0000      	Open  ;
 PIPE_1422849    	NODE_1331313    	NODE_1321174    	8.1195      	110.0000    	0.0200     	0.0000      	Open  ;
 PIPE_1422855    	NODE_1332195    	NODE_1332912    	0.0540      	110.0000    	0.0200     	0.0000      	Open  ;
 PIPE_1422972    	NODE_1332912    	NODE_1331172    	5.1410      	110.0000    	0.0200     	0.0000      	Open  ;
 PIPE_1422973    	NODE_1331172    	NODE_1331313    	18.7927     	110.0000    	0.0200     	0.0000      	Open  ;
 PIPE_1422978    	NODE_1318544    	NODE_1319092    	8.0452      	110.0000    	0.0200     	0.0000      	Open  ;
 PIPE_1422979    	NODE_1319092    	NODE_1332195    	11.0550     	110.0000    	0.0200     	0.0000      	Open  ;
 PIPE_1422984    	NODE_1332196    	NODE_1332691    	4.3856      	110.0000    	0.0200     	0.0000      	Open  ;
 PIPE_1422985    	NODE_1332691    	NODE_1318544    	12.6852     	110.0000    	0.0200     	0.0000      	Open  ;
 PIPE_1422991    	NODE_1338489    	NODE_1332196    	14.5162     	110.0000    	0.0200     	0.0000      	Open  ;
 PIPE_1422996    	NODE_1332690    	NODE_1315326    	6.1113      	110.0000    	0.0200     	0.0000      	Open  ;
 PIPE_1422997    	NODE_1315326    	NODE_1338489    	18.5329     	110.0000    	0.0200     	0.0000      	Open  ;
 PIPE_1423002    	NODE_1333390    	NODE_1328140    	37.3138     	110.0000    	0.0200     	0.0000      	Open  ;
 PIPE_1423003    	NODE_1328140    	NODE_1332690    	7.6114      	110.0000    	0.0200     	0.0000      	Open  ;
 PIPE_1423008    	NODE_1332917    	NODE_1332692    	10.1589     	110.0000    	0.0200     	0.0000      	Open  ;
 PIPE_1423009    	NODE_1332692    	NODE_1332156    	7.3913      	110.0000    	0.0200     	0.0000      	Open  ;
 PIPE_1423014    	NODE_1338073    	NODE_1332693    	11.5129     	110.0000    	0.0200     	0.0000      	Open  ;
 PIPE_1423015    	NODE_1332693    	NODE_1332917    	10.0984     	110.0000    	0.0200     	0.0000      	Open  ;
 PIPE_1423020    	NODE_1315336    	NODE_1337381    	13.7935     	110.0000    	0.0200     	0.0000      	Open  ;
 PIPE_1423021    	NODE_1337381    	NODE_1338490    	24.2172     	110.0000    	0.0200     	0.0000      	Open  ;
 PIPE_1423027    	NODE_1333391    	NODE_1315327    	8.6372      	110.0000    	0.0200     	0.0000      	Open  ;
 PIPE_1423028    	NODE_1315327    	NODE_1332928    	24.1421     	110.0000    	0.0200     	0.0000      	Open  ;
 PIPE_1423034    	NODE_1332694    	NODE_1332941    	15.4138     	110.0000    	0.0200     	0.0000      	Open  ;
 PIPE_1423039    	NODE_1332695    	NODE_1332694    	17.9657     	110.0000    	0.0200     	0.0000      	Open  ;
 PIPE_1423046    	NODE_1332696    	NODE_1332695    	15.3854     	110.0000    	0.0200     	0.0000      	Open  ;
 PIPE_1423051    	NODE_1332919    	NODE_1315328    	17.1620     	110.0000    	0.0200     	0.0000      	Open  ;
 PIPE_1423052    	NODE_1315328    	NODE_1332696    	39.1665     	110.0000    	0.0200     	0.0000      	Open  ;
 PIPE_2851159    	NODE_1343606    	NODE_10573_1    	0.3046      	110.0000    	0.0200     	0.0000      	Open  ;
 PIPE_2851160    	NODE_10573      	NODE_1332918    	16.7596     	110.0000    	0.0200     	0.0000      	Open  ;
 PIPE_2851166    	NODE_1343606    	NODE_10574_1    	0.2986      	110.0000    	0.0200     	0.0000      	Open  ;
 PIPE_2851167    	NODE_10574      	NODE_1332927    	11.7457     	110.0000    	0.0200     	0.0000      	Open  ;
 PIPE_2851191    	NODE_1343604    	NODE_10578_1    	0.2737      	110.0000    	0.0200     	0.0000      	Open  ;
 PIPE_2851192    	NODE_10578      	NODE_1332155    	9.5207      	110.0000    	0.0200     	0.0000      	Open  ;
 PIPE_2851198    	NODE_1332932    	NODE_10579_1    	16.7831     	110.0000    	0.0200     	0.0000      	Open  ;
 PIPE_2851199    	NODE_10579      	NODE_1343604    	0.2737      	110.0000    	0.0200     	0.0000      	Open  ;
 PIPE_2851211    	NODE_1332939    	NODE_10566_1    	0.3509      	80.0000     	0.0200     	0.0000      	Open  ;
 PIPE_2851212    	NODE_10566      	NODE_1343601    	0.3000      	80.0000     	0.0200     	0.0000      	Open  ;
 PIPE_6276242    	NODE_1332934    	NODE_10580_1    	34.9456     	110.0000    	0.0200     	0.0000      	Open  ;
 PIPE_6276243    	NODE_10580      	NODE_1343609    	0.2997      	110.0000    	0.0200     	0.0000      	Open  ;

[PUMPS]
;ID             	Node1           	Node2           	Parameters

[VALVES]
;ID             	Node1           	Node2           	Diameter    	Type	Setting     	MinorLoss   
 VALVE_10579     	NODE_10579      	NODE_10579_1    	100.0000    	ISO 	0.0000      	0.0000      
 VALVE_10578     	NODE_10578      	NODE_10578_1    	100.0000    	ISO 	0.0000      	0.0000      
 VALVE_10574     	NODE_10574      	NODE_10574_1    	100.0000    	ISO 	0.0000      	0.0000      
 VALVE_10573     	NODE_10573      	NODE_10573_1    	100.0000    	ISO 	0.0000      	0.0000      
 VALVE_10566     	NODE_10566      	NODE_10566_1    	100.0000    	ISO 	0.0000      	0.0000      
 VALVE_10580     	NODE_10580      	NODE_10580_1    	100.0000    	ISO 	0.0000      	0.0000      

[TAGS]

[DEMANDS]
;Junction       	Demand      	Pattern         	Category

[STATUS]
;ID              	Status/Setting

[PATTERNS]
;ID             	Multipliers

[CURVES]
;ID             	X-Value     	Y-Value

[CONTROLS]

[RULES]

[ENERGY]

[EMITTERS]

[QUALITY]

[SOURCES]

[REACTIONS]

[MIXING]

[TIMES]

[REPORT]

[OPTIONS]
 Units              	LPS
 Headloss           	C-F
 Specific Gravity   	1.0
 Viscosity          	1.0
 Trials             	40
 Accuracy           	0.001
 CHECKFREQ          	2
 MAXCHECK           	10
 DAMPLIMIT          	0
 Unbalanced         	Continue 10
 Pattern            	1
 Demand Multiplier  	1.0
 Emitter Exponent   	0.5
 Quality            	Chlorine mg/L
 Diffusivity        	1.0
 Tolerance          	0.01

[COORDINATES]
;Node           	X-Coord         	Y-Coord
 NODE_1318532    	261580.4848     	492877.2159     
 NODE_1337382    	261288.1662     	492576.8312     
 NODE_1332941    	261150.5190     	493023.2963     
 NODE_1332937    	261231.7119     	492187.5198     
 NODE_1332165    	261532.6975     	492854.1674     
 NODE_1332196    	261455.0167     	492816.2193     
 NODE_1332939    	261288.5195     	492415.2708     
 NODE_1328140    	261412.9914     	492795.6895     
 NODE_1331233    	261352.4297     	492766.1195     
 NODE_1332692    	261311.5298     	492746.1623     
 NODE_1332163    	261560.7319     	492867.7184     
 NODE_1332160    	261539.2427     	492857.3648     
 NODE_1332936    	261243.0898     	492190.7530     
 NODE_1332935    	261240.9766     	492190.1525     
 NODE_1315339    	261335.2566     	492215.6721     
 NODE_1332156    	261318.1726     	492749.4036     
 NODE_1332915    	261333.0463     	492756.6613     
 NODE_1332926    	261231.6788     	492755.9909     
 NODE_1315327    	261255.8863     	492676.8701     
 NODE_1332934    	261361.6504     	492223.0321     
 NODE_1333393    	261373.7592     	492302.5910     
 NODE_1315326    	261425.3215     	492801.7129     
 NODE_1332699    	261681.1452     	492925.6151     
 NODE_1315336    	261270.4199     	492631.5661     
 NODE_1332922    	261203.2683     	492848.7210     
 NODE_1332161    	261613.5156     	492893.0977     
 NODE_1332921    	261197.7172     	492867.0280     
 NODE_1337381    	261266.1658     	492644.6872     
 NODE_1322220    	261699.6943     	492934.5338     
 NODE_1331313    	261509.0704     	492842.6252     
 NODE_1330872    	261656.4494     	492913.7410     
 NODE_1315847    	261140.8362     	492161.6958     
 NODE_1332917    	261302.3999     	492741.7073     
 NODE_1315335    	261236.4345     	492740.4685     
 NODE_1332913    	261369.4876     	492774.4429     
 NODE_1332912    	261487.5655     	492832.1198     
 NODE_1333388    	261743.1186     	492955.4130     
 NODE_1318531    	261522.8719     	492849.3675     
 NODE_1331172    	261492.1848     	492834.3764     
 NODE_1338490    	261258.6968     	492667.7238     
 NODE_1315332    	261271.5811     	492726.6693     
 NODE_1332911    	261596.0272     	492884.6890     
 NODE_1332928    	261248.8332     	492699.9589     
 NODE_1332195    	261487.5170     	492832.0962     
 NODE_1315331    	261340.2708     	492760.1865     
 NODE_1315848    	261316.9680     	492485.6399     
 NODE_1332924    	261219.9370     	492794.3155     
 NODE_1318530    	261629.8352     	492900.9444     
 NODE_1332693    	261293.3243     	492737.2789     
 NODE_1332925    	261225.8447     	492775.0329     
 NODE_1332938    	261345.7582     	492393.5022     
 NODE_1338489    	261441.9736     	492809.8476     
 NODE_1332697    	261721.2891     	492944.9170     
 NODE_1332691    	261458.9573     	492818.1444     
 NODE_1332159    	261559.8255     	492867.2826     
 NODE_1338073    	261282.9774     	492732.2301     
 NODE_1332696    	261164.6186     	492976.6143     
 NODE_1332162    	261597.1060     	492885.2077     
 NODE_1315330    	261372.9217     	492776.1186     
 NODE_1332918    	261260.0191     	492721.0276     
 NODE_1332923    	261209.1274     	492829.5973     
 NODE_1332700    	261668.4081     	492919.4909     
 NODE_1332929    	261280.6090     	492600.1398     
 NODE_1332698    	261720.8559     	492944.7087     
 NODE_1315340    	261218.1941     	492183.6785     
 NODE_1319092    	261477.5839     	492827.2437     
 NODE_1332158    	261612.6481     	492892.6806     
 NODE_1332930    	261284.0062     	492589.6618     
 NODE_1332690    	261419.8304     	492799.0304     
 NODE_1332920    	261186.3072     	492904.8054     
 NODE_1332695    	261160.1701     	492991.3425     
 NODE_1332155    	261327.1651     	492453.7523     
 NODE_1337546    	261373.6197     	492303.0440     
 NODE_1332927    	261241.1552     	492725.0605     
 NODE_1315334    	261214.8902     	492810.7877     
 NODE_1332931    	261309.1776     	492437.8411     
 NODE_1315333    	261192.1640     	492885.4141     
 NODE_1315329    	261692.1347     	492930.8991     
 NODE_1331307    	261159.5402     	492167.0109     
 NODE_1332916    	261322.2218     	492751.3795     
 NODE_1333390    	261379.4643     	492779.3111     
 NODE_1332933    	261377.3900     	492290.9411     
 NODE_1319093    	261201.1219     	492178.8271     
 NODE_1333389    	261295.6634     	492205.3469     
 NODE_1315328    	261175.9429     	492939.1206     
 NODE_1315337    	261317.8095     	492483.0085     
 NODE_1333391    	261258.4096     	492668.6097     
 NODE_1332694    	261154.9757     	493008.5409     
 NODE_1315338    	261363.6068     	492335.5529     
 NODE_1333375    	261742.6879     	492955.2059     
 NODE_1332919    	261180.9050     	492922.6916     
 NODE_1332914    	261356.9047     	492768.3031     
 NODE_1333392    	261201.7348     	492853.7263     
 NODE_1332164    	261542.4402     	492858.9235     
 NODE_1331306    	261250.8010     	492192.9027     
 NODE_1322225    	261542.0022     	492858.7129     
 NODE_1332932    	261335.1002     	492428.1055     
 NODE_1328139    	261741.4428     	492954.6072     
 NODE_1318544    	261470.3551     	492823.7124     
 NODE_1332157    	261629.8608     	492900.9567     
 NODE_1321174    	261516.3659     	492846.1892     
 NODE_10574      	261244.5960     	492713.8300     
 NODE_10574_1    	261246.5960     	492713.8300     
 PRESS_99        	261287.7290     	492420.4140     
 NODE_10580      	261395.2789     	492232.5358     
 NODE_10580_1    	261397.2789     	492232.5358     
 NODE_10579      	261330.1600     	492444.1450     
 NODE_10579_1    	261332.1600     	492444.1450     
 NODE_1343604    	261330.1125     	492444.4145     
 NODE_1343602    	261288.1950     	492418.2080     
 NODE_1343606    	261244.6832     	492713.5444     
 POOL_228        	261288.1890     	492400.5110     
 NODE_10578      	261330.0650     	492444.6840     
 NODE_10578_1    	261332.0650     	492444.6840     
 NODE_3964723    	261296.7399     	492510.1673     
 NODE_1343601    	261288.5909     	492414.6238     
 NODE_1343609    	261395.5673     	492232.6173     
 NODE_10573      	261244.9570     	492713.6780     
 NODE_10573_1    	261246.9570     	492713.6780     
 NODE_10566      	261288.5580     	492414.9220     
 NODE_10566_1    	261290.5580     	492414.9220     

[VERTICES]

[LABELS]

[BACKDROP]

[END]
