[TITLE]
Converted from Epanet to Staci, case name: und.spr


[JUNCTIONS]
;ID              	Elev        	Demand      	Pattern         
 NODE_1329468    	216.3164    	0.000000    	                	;
 NODE_1319161    	199.4055    	0.002500    	                	;
 NODE_1330995    	198.1394    	0.000833    	                	;
 NODE_1330597    	215.8056    	0.005833    	                	;
 NODE_1330125    	215.1008    	0.000000    	                	;
 NODE_1319172    	215.2165    	0.005417    	                	;
 NODE_1327263    	199.2048    	0.002500    	                	;
 NODE_1321795    	215.3891    	0.000000    	                	;
 NODE_1320296    	215.3426    	0.004583    	                	;
 NODE_1330618    	214.2876    	0.001250    	                	;
 NODE_1336715    	214.7454    	0.004583    	                	;
 NODE_1330638    	211.2566    	0.000000    	                	;
 NODE_1330594    	215.1549    	0.000000    	                	;
 NODE_1321231    	216.6748    	0.001667    	                	;
 NODE_1330592    	216.6347    	0.000000    	                	;
 NODE_1330114    	212.0560    	0.000000    	                	;
 NODE_1327256    	200.0609    	0.014846    	                	;
 NODE_1337295    	212.8544    	0.001250    	                	;
 NODE_1322780    	215.1906    	0.003750    	                	;
 NODE_1322840    	214.7737    	0.002083    	                	;
 NODE_1327254    	200.1712    	0.008750    	                	;
 NODE_1327269    	198.7850    	0.007083    	                	;
 NODE_1338211    	216.2699    	0.007083    	                	;
 NODE_1330614    	212.9857    	0.006667    	                	;
 NODE_1330138    	216.7002    	0.000000    	                	;
 NODE_1330637    	216.2673    	0.000000    	                	;
 NODE_1329632    	215.7460    	0.004167    	                	;
 NODE_1330121    	214.6741    	0.002500    	                	;
 NODE_1330128    	216.1884    	0.004167    	                	;
 NODE_1319170    	215.4427    	0.004167    	                	;
 NODE_1329629    	214.3623    	0.004958    	                	;
 NODE_1330139    	216.6454    	0.001250    	                	;
 NODE_1327276    	215.7080    	0.000000    	                	;
 NODE_1327275    	215.9431    	0.000000    	                	;
 NODE_1321757    	200.0350    	0.000000    	                	;
 NODE_1322302    	213.6384    	0.001250    	                	;
 NODE_1322305    	216.1123    	0.000000    	                	;
 NODE_1330634    	214.5069    	0.002500    	                	;
 NODE_1327265    	199.4242    	0.003750    	                	;
 NODE_1322304    	215.1889    	0.002917    	                	;
 NODE_1330601    	215.7840    	0.007917    	                	;
 NODE_1330631    	212.5074    	0.001667    	                	;
 NODE_1327258    	200.3949    	0.001667    	                	;
 NODE_1322309    	216.4895    	0.004167    	                	;
 NODE_1338667    	215.5241    	0.002083    	                	;
 NODE_1319164    	200.1025    	0.000833    	                	;
 NODE_1322839    	214.3846    	0.000625    	                	;
 NODE_1330628    	212.5675    	0.000625    	                	;
 NODE_1330115    	215.2913    	0.007954    	                	;
 NODE_1330623    	215.5547    	0.002083    	                	;
 NODE_1321793    	196.2501    	0.000000    	                	;
 NODE_1330123    	215.1685    	0.000000    	                	;
 NODE_1330134    	215.4049    	0.003333    	                	;
 NODE_1331041    	215.8475    	0.000833    	                	;
 NODE_1327266    	199.6760    	0.009583    	                	;
 NODE_1330137    	216.6145    	0.006250    	                	;
 NODE_1319167    	199.1703    	0.000833    	                	;
 NODE_1322297    	215.2314    	0.001250    	                	;
 NODE_1327100    	212.5241    	0.004167    	                	;
 NODE_1320826    	216.8362    	0.000000    	                	;
 NODE_1321230    	214.9588    	0.000417    	                	;
 NODE_1330854    	215.9738    	0.000833    	                	;
 NODE_1330129    	216.2894    	0.000417    	                	;
 NODE_1330606    	212.6664    	0.005833    	                	;
 NODE_1327251    	199.7850    	0.005417    	                	;
 NODE_1327257    	200.2365    	0.001250    	                	;
 NODE_1329634    	216.6206    	0.002083    	                	;
 NODE_1322835    	212.2128    	0.000000    	                	;
 NODE_1321165    	212.8384    	0.003333    	                	;
 NODE_1330632    	212.7213    	0.002083    	                	;
 NODE_1327240    	198.9948    	0.002917    	                	;
 NODE_1319160    	199.6107    	0.002917    	                	;
 NODE_1330593    	215.1191    	0.005417    	                	;
 NODE_1330633    	213.4912    	0.000833    	                	;
 NODE_1331626    	199.9260    	0.030388    	                	;
 NODE_1327245    	199.6671    	0.006667    	                	;
 NODE_1322847    	215.3774    	0.000000    	                	;
 NODE_1322299    	215.9433    	0.000000    	                	;
 NODE_1331667    	215.3066    	0.000000    	                	;
 NODE_1330584    	199.7080    	0.000000    	                	;
 NODE_1319166    	199.5577    	0.002500    	                	;
 NODE_1327239    	199.0154    	0.004583    	                	;
 NODE_1327247    	199.2392    	0.000417    	                	;
 NODE_1330120    	214.7153    	0.001667    	                	;
 NODE_1330629    	212.2465    	0.003333    	                	;
 NODE_1327277    	211.9080    	0.005417    	                	;
 NODE_1330612    	212.0913    	0.001667    	                	;
 NODE_1322846    	214.4059    	0.007083    	                	;
 NODE_1329630    	215.3055    	0.002917    	                	;
 NODE_1319171    	214.5234    	0.001250    	                	;
 NODE_1330130    	216.3841    	0.005000    	                	;
 NODE_1322848    	214.3891    	0.002042    	                	;
 NODE_1338510    	199.4717    	0.002917    	                	;
 NODE_1327262    	199.3809    	0.015208    	                	;
 NODE_1329901    	216.7035    	0.000000    	                	;
 NODE_1327264    	199.4191    	0.004167    	                	;
 NODE_1327280    	215.2276    	0.009583    	                	;
 NODE_1327242    	199.2970    	0.000417    	                	;
 NODE_1327252    	200.1015    	0.001667    	                	;
 NODE_1329637    	214.0481    	0.000833    	                	;
 NODE_1322308    	215.0280    	0.001667    	                	;
 NODE_1330135    	215.4320    	0.005417    	                	;
 NODE_1337904    	197.8195    	0.001250    	                	;
 NODE_1327250    	199.6522    	0.005000    	                	;
 NODE_1338006    	199.7725    	0.000417    	                	;
 NODE_1330602    	215.5148    	0.002500    	                	;
 NODE_1330630    	212.3135    	0.004583    	                	;
 NODE_1319169    	199.3795    	0.005833    	                	;
 NODE_1327243    	199.6976    	0.000000    	                	;
 NODE_1327253    	200.2143    	0.000000    	                	;
 NODE_6259815    	216.4035    	0.000417    	                	;
 NODE_1328497    	216.5546    	0.006250    	                	;
 NODE_1330617    	214.2758    	0.003750    	                	;
 NODE_1320139    	213.8566    	0.000000    	                	;
 NODE_1330600    	216.3641    	0.004583    	                	;
 NODE_1329627    	215.2223    	0.005000    	                	;
 NODE_1329638    	211.9418    	0.002083    	                	;
 NODE_1327279    	214.7394    	0.001667    	                	;
 NODE_1330117    	215.3322    	0.000000    	                	;
 NODE_1330616    	214.0051    	0.002083    	                	;
 NODE_1322843    	213.0405    	0.000625    	                	;
 NODE_1336764    	215.1911    	0.000000    	                	;
 NODE_1319162    	199.3959    	0.004167    	                	;
 NODE_1329628    	214.3911    	0.002262    	                	;
 NODE_1330620    	214.6405    	0.003750    	                	;
 NODE_1322830    	215.4981    	0.001250    	                	;
 NODE_1330607    	212.5228    	0.002083    	                	;
 NODE_1330625    	215.6822    	0.001250    	                	;
 NODE_1336718    	200.3581    	0.000417    	                	;
 NODE_1322300    	215.5295    	0.000000    	                	;
 NODE_1329631    	215.5552    	0.000833    	                	;
 NODE_1322829    	214.7237    	0.000417    	                	;
 NODE_1330720    	216.1447    	0.000000    	                	;
 NODE_1322834    	212.8047    	0.001667    	                	;
 NODE_1330615    	213.3802    	0.000833    	                	;
 NODE_1337287    	214.4636    	0.000000    	                	;
 NODE_1322307    	216.0732    	0.003333    	                	;
 NODE_1327255    	200.0011    	0.000000    	                	;
 NODE_1330118    	213.1594    	0.000833    	                	;
 NODE_1321229    	216.2896    	0.005417    	                	;
 NODE_1329470    	216.4452    	0.000000    	                	;
 NODE_1327270    	198.4204    	0.000833    	                	;
 NODE_1330598    	215.9624    	0.000625    	                	;
 NODE_1330608    	212.3774    	0.000833    	                	;
 NODE_1322844    	211.6599    	0.000000    	                	;
 NODE_1327101    	213.1233    	0.000000    	                	;
 NODE_1337294    	216.0123    	0.001667    	                	;
 NODE_1319159    	199.0134    	0.002083    	                	;
 NODE_1327241    	199.1179    	0.008333    	                	;
 NODE_1336712    	216.6827    	0.003200    	                	;
 NODE_1327249    	199.4864    	0.003750    	                	;
 NODE_1330605    	213.0692    	0.002500    	                	;
 NODE_1330626    	216.1402    	0.000417    	                	;
 NODE_1329633    	216.8490    	0.001667    	                	;
 NODE_1338003    	215.4703    	0.000417    	                	;
 NODE_1330131    	216.4758    	0.002917    	                	;
 NODE_1330596    	215.3167    	0.001667    	                	;
 NODE_6259870    	215.6346    	0.006667    	                	;
 NODE_1330627    	213.2649    	0.005625    	                	;
 NODE_1319165    	200.1100    	0.001667    	                	;
 NODE_1322832    	216.0943    	0.000067    	                	;
 NODE_1327274    	215.9227    	0.000000    	                	;
 NODE_1329639    	212.9016    	0.000000    	                	;
 NODE_1321234    	215.1170    	0.005504    	                	;
 NODE_1327246    	199.2497    	0.004167    	                	;
 NODE_1319163    	199.9313    	0.006250    	                	;
 NODE_1322845    	212.8194    	0.003750    	                	;
 NODE_1330604    	214.8638    	0.000000    	                	;
 NODE_1330635    	213.4517    	0.000000    	                	;
 NODE_6267702    	211.4159    	0.005575    	                	;
 NODE_1329635    	216.7298    	0.003750    	                	;
 NODE_1320647    	213.0026    	0.007500    	                	;
 NODE_1330122    	215.3745    	0.002746    	                	;
 NODE_1330133    	215.7273    	0.001042    	                	;
 NODE_1322826    	199.7622    	0.000000    	                	;
 NODE_1330124    	215.1712    	0.000000    	                	;
 NODE_1330595    	215.2607    	0.003333    	                	;
 NODE_1330619    	214.5592    	0.000625    	                	;
 NODE_1320293    	215.4631    	0.001250    	                	;
 NODE_1338210    	216.2928    	0.002500    	                	;
 NODE_1330621    	215.1087    	0.000833    	                	;
 NODE_1327244    	199.6975    	0.002083    	                	;
 NODE_1331042    	200.2791    	0.004583    	                	;
 NODE_1327261    	199.4262    	0.000625    	                	;
 NODE_1327260    	199.9624    	0.000417    	                	;
 NODE_1330610    	211.6140    	0.003333    	                	;
 NODE_1331126    	216.7117    	0.001250    	                	;
 NODE_1322303    	215.2509    	0.000417    	                	;
 NODE_1329897    	214.5828    	0.000000    	                	;
 NODE_1329899    	214.3819    	0.000000    	                	;
 NODE_1330603    	215.2164    	0.000000    	                	;
 NODE_1322836    	211.4962    	0.002083    	                	;
 NODE_1322838    	213.2907    	0.002500    	                	;
 NODE_1320827    	199.7932    	0.000000    	                	;
 NODE_1327271    	198.2156    	0.000417    	                	;
 NODE_1321232    	216.7122    	0.000417    	                	;
 NODE_1327278    	212.2284    	0.005000    	                	;
 NODE_1320825    	216.3602    	0.005000    	                	;
 NODE_1327248    	199.3992    	0.006250    	                	;
 NODE_1330132    	216.2287    	0.000000    	                	;
 NODE_1320136    	215.8463    	0.004583    	                	;
 NODE_1330611    	211.2674    	0.000833    	                	;
 NODE_1330613    	212.3302    	0.000000    	                	;
 NODE_1322841    	215.4073    	0.004167    	                	;
 NODE_1338005    	216.3730    	0.002083    	                	;
 NODE_1322842    	215.8886    	0.002917    	                	;
 NODE_1329898    	215.6067    	0.003750    	                	;
 NODE_1322833    	215.4792    	0.000000    	                	;
 NODE_1330136    	216.1806    	0.000000    	                	;
 NODE_1330609    	211.9464    	0.002917    	                	;
 NODE_1329900    	214.1805    	0.002500    	                	;
 NODE_1330126    	215.4082    	0.004583    	                	;
 NODE_1322306    	216.4549    	0.000208    	                	;
 NODE_1322831    	216.4859    	0.003333    	                	;
 NODE_1327268    	199.6326    	0.002083    	                	;
 NODE_1329469    	216.3199    	0.000625    	                	;
 NODE_1322463    	215.4250    	0.000000    	                	;
 NODE_1327259    	200.3086    	0.001250    	                	;
 NODE_1330127    	215.6581    	0.002917    	                	;
 NODE_1330599    	216.5651    	0.002437    	                	;
 NODE_1321228    	216.2620    	0.000417    	                	;
 NODE_1330583    	199.0134    	0.000000    	                	;
 NODE_1319168    	199.9711    	0.000000    	                	;
 NODE_1330622    	215.1050    	0.003333    	                	;
 NODE_1330636    	213.9814    	0.000000    	                	;
 NODE_1329636    	216.6521    	0.001667    	                	;
 NODE_1328498    	216.6138    	0.004583    	                	;
 NODE_1322837    	212.5362    	0.002917    	                	;
 NODE_1331627    	200.2319    	0.004167    	                	;
 NODE_13653      	216.6720    	0.000000    	                	;
 NODE_13653_1    	216.6600    	0.000000    	                	;
 NODE_1321233    	211.4350    	0.000000    	                	;
 NODE_1347757    	209.2350    	0.000000    	                	;
 NODE_13633      	213.5279    	0.000000    	                	;
 NODE_13633_1    	213.5509    	0.000000    	                	;
 NODE_13659      	215.2138    	0.000000    	                	;
 NODE_13659_1    	215.1951    	0.000000    	                	;
 NODE_13661      	215.2176    	0.000000    	                	;
 NODE_13661_1    	215.1990    	0.000000    	                	;
 NODE_1347446    	214.8672    	0.000000    	                	;
 NODE_13079      	200.0817    	0.000000    	                	;
 NODE_13079_1    	200.1371    	0.000000    	                	;
 NODE_1347789    	215.2152    	0.000000    	                	;
 NODE_13636      	213.5292    	0.000000    	                	;
 NODE_13636_1    	213.5522    	0.000000    	                	;
 NODE_1347448    	213.5315    	0.000000    	                	;
 NODE_3969510    	217.2035    	0.000000    	                	;
 NODE_30653      	209.6753    	0.000000    	                	;
 NODE_1346824    	199.9206    	0.000000    	                	;
 NODE_13078      	199.6983    	0.000000    	                	;
 NODE_13078_1    	199.7083    	0.000000    	                	;
 NODE_1347795    	216.6702    	0.000000    	                	;
 NODE_13654      	216.6717    	0.000000    	                	;
 NODE_13654_1    	216.6597    	0.000000    	                	;
 NODE_1347525    	213.5330    	0.000000    	                	;
 NODE_1346830    	199.4327    	0.000000    	                	;
 NODE_3998554    	203.4894    	0.000000    	                	;
 NODE_13649      	214.8689    	0.000000    	                	;
 NODE_13649_1    	214.8899    	0.000000    	                	;
 NODE_13642      	212.2555    	0.000000    	                	;
 NODE_13642_1    	212.2735    	0.000000    	                	;
 NODE_13641      	212.2478    	0.000000    	                	;
 NODE_13641_1    	212.2658    	0.000000    	                	;
 NODE_13639      	213.3947    	0.000000    	                	;
 NODE_13639_1    	213.4041    	0.000000    	                	;
 NODE_13643      	212.2495    	0.000000    	                	;
 NODE_13643_1    	212.2675    	0.000000    	                	;
 NODE_13076      	199.6953    	0.000000    	                	;
 NODE_13076_1    	199.7053    	0.000000    	                	;
 NODE_1347787    	212.2144    	0.000000    	                	;
 NODE_1347445    	215.4149    	0.000000    	                	;
 NODE_13663      	213.3261    	0.000000    	                	;
 NODE_13663_1    	213.3491    	0.000000    	                	;
 NODE_10330      	199.4334    	0.000000    	                	;
 NODE_10330_1    	199.4501    	0.000000    	                	;
 NODE_10499      	199.9208    	0.000000    	                	;
 NODE_10499_1    	199.9168    	0.000000    	                	;
 NODE_13660      	215.2167    	0.000000    	                	;
 NODE_13660_1    	215.1981    	0.000000    	                	;
 NODE_13645      	212.2101    	0.000000    	                	;
 NODE_13645_1    	212.2301    	0.000000    	                	;
 NODE_13650      	214.8650    	0.000000    	                	;
 NODE_13650_1    	214.8860    	0.000000    	                	;
 NODE_13077      	199.6950    	0.000000    	                	;
 NODE_13077_1    	199.7050    	0.000000    	                	;
 NODE_13648      	213.1362    	0.000000    	                	;
 NODE_13648_1    	213.1412    	0.000000    	                	;
 NODE_1347447    	213.1364    	0.000000    	                	;
 NODE_1347793    	213.3399    	0.000000    	                	;
 NODE_1346831    	199.4575    	0.000000    	                	;
 NODE_13651      	214.8636    	0.000000    	                	;
 NODE_13651_1    	214.8846    	0.000000    	                	;
 NODE_13638      	213.4025    	0.000000    	                	;
 NODE_13638_1    	213.4119    	0.000000    	                	;
 NODE_13662      	216.0708    	0.000000    	                	;
 NODE_13662_1    	216.0774    	0.000000    	                	;
 NODE_13652      	216.6693    	0.000000    	                	;
 NODE_13652_1    	216.6573    	0.000000    	                	;
 NODE_13632      	213.3182    	0.000000    	                	;
 NODE_13632_1    	213.3412    	0.000000    	                	;
 NODE_13664      	213.3370    	0.000000    	                	;
 NODE_13664_1    	213.3600    	0.000000    	                	;
 NODE_13093      	199.4589    	0.000000    	                	;
 NODE_13093_1    	199.4316    	0.000000    	                	;
 NODE_1347788    	212.2519    	0.000000    	                	;
 NODE_1347792    	213.3994    	0.000000    	                	;
 NODE_13080      	200.0859    	0.000000    	                	;
 NODE_13080_1    	200.1412    	0.000000    	                	;
 NODE_3998132    	200.0897    	0.000000    	                	;
 NODE_1346893    	199.4372    	0.000000    	                	;
 NODE_1346837    	199.6952    	0.000000    	                	;
 NODE_13637      	213.5337    	0.000000    	                	;
 NODE_13637_1    	213.5567    	0.000000    	                	;
 NODE_1347784    	213.3242    	0.000000    	                	;

[RESERVOIRS]
;ID              	Head        	Pattern         
 PRESS_661       	244.5837    	                

[TANKS]
;ID             	Elevation   	InitLevel   	MinLevel    	MaxLevel    	Diameter    	MinVol      	VolCurve
 POOL_236        	234.8000    	4.0000      	0.0000      	1000.0000   	5.4288      	0.0000      	                	

[PIPES]
;ID             	Node1           	Node2           	Length      	Diameter    	Roughness   	MinorLoss   	Status
 PIPE_588641     	NODE_1346893    	NODE_1346830    	5.4184      	110.0000    	0.0200     	0.0000      	Open  ;
 PIPE_588970     	NODE_1346831    	NODE_1346893    	2.0015      	110.0000    	0.0200     	0.0000      	Open  ;
 PIPE_626648     	NODE_1347757    	NODE_3998554    	785.0366    	110.0000    	0.0200     	0.0000      	Open  ;
 PIPE_626654     	POOL_236        	NODE_3969510    	14.9217     	200.0000    	0.0200     	0.0000      	Open  ;
 PIPE_626681     	NODE_1347784    	NODE_1347793    	13.6982     	90.0000     	0.0200     	0.0000      	Open  ;
 PIPE_1383468    	NODE_1330995    	NODE_1327271    	10.5803     	110.0000    	0.0200     	0.0000      	Open  ;
 PIPE_1383474    	NODE_1327271    	NODE_1327270    	24.3575     	110.0000    	0.0200     	0.0000      	Open  ;
 PIPE_1383658    	NODE_1327270    	NODE_1327269    	21.6127     	110.0000    	0.0200     	0.0000      	Open  ;
 PIPE_1383663    	NODE_1327269    	NODE_1319169    	27.9023     	110.0000    	0.0200     	0.0000      	Open  ;
 PIPE_1383668    	PRESS_661       	NODE_1321793    	97.8063     	110.0000    	0.0200     	0.0000      	Open  ;
 PIPE_1383689    	NODE_1319169    	NODE_1327268    	28.3549     	110.0000    	0.0200     	0.0000      	Open  ;
 PIPE_1383695    	NODE_1327268    	NODE_1320827    	20.1995     	110.0000    	0.0200     	0.0000      	Open  ;
 PIPE_1383699    	NODE_1346824    	NODE_1331626    	2.1370      	110.0000    	0.0200     	0.0000      	Open  ;
 PIPE_1383703    	NODE_1331626    	NODE_1319168    	40.6279     	110.0000    	0.0200     	0.0000      	Open  ;
 PIPE_1383709    	NODE_1327266    	NODE_1322826    	24.8122     	110.0000    	0.0200     	0.0000      	Open  ;
 PIPE_1383713    	NODE_1327265    	NODE_1346893    	4.4176      	110.0000    	0.0200     	0.0000      	Open  ;
 PIPE_1383718    	NODE_1327264    	NODE_1327265    	18.9534     	110.0000    	0.0200     	0.0000      	Open  ;
 PIPE_1383723    	NODE_1319167    	NODE_1327264    	18.3109     	110.0000    	0.0200     	0.0000      	Open  ;
 PIPE_1383728    	NODE_1327263    	NODE_1319167    	18.6073     	110.0000    	0.0200     	0.0000      	Open  ;
 PIPE_1383733    	NODE_1327262    	NODE_1327263    	59.9084     	110.0000    	0.0200     	0.0000      	Open  ;
 PIPE_1383738    	NODE_1327261    	NODE_1327262    	4.7576      	110.0000    	0.0200     	0.0000      	Open  ;
 PIPE_1383743    	NODE_1319166    	NODE_1327261    	20.1811     	110.0000    	0.0200     	0.0000      	Open  ;
 PIPE_1383748    	NODE_1338006    	NODE_1319166    	19.8783     	110.0000    	0.0200     	0.0000      	Open  ;
 PIPE_1383753    	NODE_1327260    	NODE_1338006    	18.1690     	110.0000    	0.0200     	0.0000      	Open  ;
 PIPE_1383763    	NODE_1327259    	NODE_1319165    	22.8609     	110.0000    	0.0200     	0.0000      	Open  ;
 PIPE_1383764    	NODE_1319165    	NODE_1327260    	19.0378     	110.0000    	0.0200     	0.0000      	Open  ;
 PIPE_1383771    	NODE_1327258    	NODE_1327259    	12.1768     	110.0000    	0.0200     	0.0000      	Open  ;
 PIPE_1383776    	NODE_1336718    	NODE_1327258    	12.0966     	110.0000    	0.0200     	0.0000      	Open  ;
 PIPE_1383781    	NODE_1327257    	NODE_1336718    	14.1222     	110.0000    	0.0200     	0.0000      	Open  ;
 PIPE_1383786    	NODE_1319164    	NODE_1327257    	15.5513     	110.0000    	0.0200     	0.0000      	Open  ;
 PIPE_1383790    	NODE_1319168    	NODE_1327256    	94.6531     	110.0000    	0.0200     	0.0000      	Open  ;
 PIPE_1383791    	NODE_1327256    	NODE_3998132    	21.6436     	110.0000    	0.0200     	0.0000      	Open  ;
 PIPE_1383805    	NODE_1331627    	NODE_1327254    	18.6671     	80.0000     	0.0200     	0.0000      	Open  ;
 PIPE_1383810    	NODE_1331042    	NODE_1331627    	12.5605     	80.0000     	0.0200     	0.0000      	Open  ;
 PIPE_1383815    	NODE_1327253    	NODE_1331042    	15.7474     	80.0000     	0.0200     	0.0000      	Open  ;
 PIPE_1383924    	NODE_1327252    	NODE_1327253    	14.6361     	80.0000     	0.0200     	0.0000      	Open  ;
 PIPE_1383929    	NODE_1319163    	NODE_1327252    	16.0865     	80.0000     	0.0200     	0.0000      	Open  ;
 PIPE_1383934    	NODE_1327251    	NODE_1319163    	13.1708     	80.0000     	0.0200     	0.0000      	Open  ;
 PIPE_1383939    	NODE_1327250    	NODE_1327251    	16.7797     	80.0000     	0.0200     	0.0000      	Open  ;
 PIPE_1383944    	NODE_1327249    	NODE_1327250    	17.3774     	80.0000     	0.0200     	0.0000      	Open  ;
 PIPE_1383949    	NODE_1319162    	NODE_1327249    	9.4736      	80.0000     	0.0200     	0.0000      	Open  ;
 PIPE_1383954    	NODE_1327248    	NODE_1319162    	27.8917     	80.0000     	0.0200     	0.0000      	Open  ;
 PIPE_1383959    	NODE_1327247    	NODE_1327248    	17.3555     	80.0000     	0.0200     	0.0000      	Open  ;
 PIPE_1383964    	NODE_1327246    	NODE_1327247    	8.9414      	80.0000     	0.0200     	0.0000      	Open  ;
 PIPE_1383970    	NODE_1338510    	NODE_1327246    	22.2365     	80.0000     	0.0200     	0.0000      	Open  ;
 PIPE_1383975    	NODE_1319161    	NODE_1338510    	14.0543     	80.0000     	0.0200     	0.0000      	Open  ;
 PIPE_1383980    	NODE_1327245    	NODE_1319161    	32.4414     	80.0000     	0.0200     	0.0000      	Open  ;
 PIPE_1383994    	NODE_1319160    	NODE_1327243    	18.6726     	80.0000     	0.0200     	0.0000      	Open  ;
 PIPE_1383999    	NODE_1327242    	NODE_1319160    	21.0161     	80.0000     	0.0200     	0.0000      	Open  ;
 PIPE_1384004    	NODE_1327241    	NODE_1327242    	24.1229     	80.0000     	0.0200     	0.0000      	Open  ;
 PIPE_1384009    	NODE_1327240    	NODE_1327241    	30.4151     	80.0000     	0.0200     	0.0000      	Open  ;
 PIPE_1384013    	NODE_1330583    	NODE_1319159    	0.0485      	80.0000     	0.0200     	0.0000      	Open  ;
 PIPE_1384018    	NODE_1319159    	NODE_1327239    	6.7231      	80.0000     	0.0200     	0.0000      	Open  ;
 PIPE_1384019    	NODE_1327239    	NODE_1327240    	27.9289     	80.0000     	0.0200     	0.0000      	Open  ;
 PIPE_1384321    	NODE_1327244    	NODE_1330584    	43.4829     	80.0000     	0.0200     	0.0000      	Open  ;
 PIPE_1384322    	NODE_1330584    	NODE_1327245    	6.3598      	80.0000     	0.0200     	0.0000      	Open  ;
 PIPE_1384956    	NODE_1337904    	NODE_1330995    	40.6878     	110.0000    	0.0200     	0.0000      	Open  ;
 PIPE_1384957    	NODE_1321793    	NODE_1337904    	171.0483    	110.0000    	0.0200     	0.0000      	Open  ;
 PIPE_1384972    	NODE_1327254    	NODE_1321757    	20.6225     	80.0000     	0.0200     	0.0000      	Open  ;
 PIPE_1384973    	NODE_1321757    	NODE_1327255    	3.8901      	80.0000     	0.0200     	0.0000      	Open  ;
 PIPE_1490449    	NODE_1330129    	NODE_1330130    	24.2338     	110.0000    	0.0200     	0.0000      	Open  ;
 PIPE_1490454    	NODE_1330128    	NODE_1330129    	16.0347     	110.0000    	0.0200     	0.0000      	Open  ;
 PIPE_1490459    	NODE_1322305    	NODE_1330128    	13.9294     	110.0000    	0.0200     	0.0000      	Open  ;
 PIPE_1490469    	NODE_1330127    	NODE_1331041    	20.9910     	110.0000    	0.0200     	0.0000      	Open  ;
 PIPE_1490503    	NODE_1347445    	NODE_1322463    	9.1490      	110.0000    	0.0200     	0.0000      	Open  ;
 PIPE_1490512    	NODE_1330122    	NODE_1320296    	8.6477      	110.0000    	0.0200     	0.0000      	Open  ;
 PIPE_1490517    	NODE_1322302    	NODE_1347525    	6.5764      	110.0000    	0.0200     	0.0000      	Open  ;
 PIPE_1490530    	NODE_1330120    	NODE_1330121    	17.8318     	110.0000    	0.0200     	0.0000      	Open  ;
 PIPE_1490545    	NODE_1347525    	NODE_1327101    	27.8651     	110.0000    	0.0200     	0.0000      	Open  ;
 PIPE_1490549    	NODE_1327101    	NODE_1320647    	8.5269      	110.0000    	0.0200     	0.0000      	Open  ;
 PIPE_1490554    	NODE_1320647    	NODE_1327100    	22.5969     	110.0000    	0.0200     	0.0000      	Open  ;
 PIPE_1490559    	NODE_1327100    	NODE_1327278    	18.8400     	110.0000    	0.0200     	0.0000      	Open  ;
 PIPE_1490564    	NODE_1327278    	NODE_1327277    	19.6842     	110.0000    	0.0200     	0.0000      	Open  ;
 PIPE_1490569    	NODE_1330130    	NODE_1322306    	11.5387     	110.0000    	0.0200     	0.0000      	Open  ;
 PIPE_1490806    	NODE_1347447    	NODE_1330118    	4.9227      	110.0000    	0.0200     	0.0000      	Open  ;
 PIPE_1490810    	NODE_1347445    	NODE_1330117    	15.6327     	110.0000    	0.0200     	0.0000      	Open  ;
 PIPE_1490811    	NODE_1330117    	NODE_1322303    	16.0928     	110.0000    	0.0200     	0.0000      	Open  ;
 PIPE_1490815    	NODE_1320296    	NODE_1330115    	13.8888     	110.0000    	0.0200     	0.0000      	Open  ;
 PIPE_1490816    	NODE_1330115    	NODE_1347445    	30.0159     	110.0000    	0.0200     	0.0000      	Open  ;
 PIPE_1490822    	NODE_1319171    	NODE_1330120    	18.5756     	110.0000    	0.0200     	0.0000      	Open  ;
 PIPE_1490826    	NODE_1330121    	NODE_1327279    	19.5122     	110.0000    	0.0200     	0.0000      	Open  ;
 PIPE_1490833    	NODE_1327280    	NODE_1330122    	11.6446     	110.0000    	0.0200     	0.0000      	Open  ;
 PIPE_1490837    	NODE_1322303    	NODE_1322780    	10.7489     	110.0000    	0.0200     	0.0000      	Open  ;
 PIPE_1490838    	NODE_1322780    	NODE_1330123    	4.6068      	110.0000    	0.0200     	0.0000      	Open  ;
 PIPE_1490845    	NODE_1319172    	NODE_1330124    	6.0376      	110.0000    	0.0200     	0.0000      	Open  ;
 PIPE_1490850    	NODE_1322304    	NODE_1331667    	13.8828     	110.0000    	0.0200     	0.0000      	Open  ;