[TITLE]
Converted from Epanet to Staci, case name: varis2.spr


[JUNCTIONS]
;ID              	Elev        	Demand      	Pattern         
 NODE_6634379    	217.3240    	0.000000    	                	;
 NODE_1327294    	216.6990    	0.000000    	                	;
 NODE_1313087    	223.3590    	0.000000    	                	;
 NODE_1326902    	221.1700    	0.000000    	                	;
 NODE_1318322    	225.0100    	0.082917    	                	;
 NODE_1321324    	226.0740    	0.000000    	                	;
 NODE_1318473    	221.2090    	0.000000    	                	;
 NODE_1324631    	221.4660    	0.022917    	                	;
 NODE_1315933    	230.1120    	0.006250    	                	;
 NODE_1314266    	225.9510    	0.003750    	                	;
 NODE_1314268    	225.8580    	0.015000    	                	;
 NODE_1320815    	225.3150    	0.007083    	                	;
 NODE_1314269    	224.8930    	0.001250    	                	;
 NODE_1337939    	224.6400    	0.004583    	                	;
 NODE_1335373    	225.2680    	0.000000    	                	;
 NODE_1315934    	227.5100    	0.007083    	                	;
 NODE_1316242    	226.3600    	0.000000    	                	;
 NODE_1335670    	228.1780    	0.014167    	                	;
 NODE_1313168    	227.9330    	0.042083    	                	;
 NODE_1317720    	218.6090    	0.002500    	                	;
 NODE_1324642    	218.4250    	0.006667    	                	;
 NODE_1313632    	232.0830    	0.006250    	                	;
 NODE_1327163    	231.2300    	0.007083    	                	;
 NODE_1313630    	230.7930    	0.005833    	                	;
 NODE_1313121    	223.8100    	0.033333    	                	;
 NODE_1314280    	226.2120    	0.006250    	                	;
 NODE_1313375    	217.8730    	0.001667    	                	;
 NODE_1313393    	221.5670    	0.001667    	                	;
 NODE_1324444    	220.9640    	0.007917    	                	;
 NODE_1312660    	220.8990    	0.132083    	                	;
 NODE_1312662    	220.3860    	0.024167    	                	;
 NODE_1312665    	219.6150    	0.002917    	                	;
 NODE_1313374    	217.4840    	0.003750    	                	;
 NODE_1322180    	216.7770    	0.002083    	                	;
 NODE_1312446    	216.6910    	0.002917    	                	;
 NODE_1321351    	229.1930    	0.003333    	                	;
 NODE_1335669    	219.3380    	0.004583    	                	;
 NODE_1312452    	217.9200    	0.002917    	                	;
 NODE_1318419    	218.3300    	0.001250    	                	;
 NODE_1323653    	228.2590    	0.000000    	                	;
 NODE_1318946    	234.7830    	0.000000    	                	;
 NODE_1325242    	217.5870    	0.017500    	                	;
 NODE_1325787    	222.4390    	0.000000    	                	;
 NODE_1325793    	218.1800    	0.000000    	                	;
 NODE_1313584    	229.4080    	0.000000    	                	;
 NODE_1338381    	228.7370    	0.000000    	                	;
 NODE_1314479    	223.5240    	0.004167    	                	;
 NODE_1314481    	224.5490    	0.001667    	                	;
 NODE_1318306    	217.0140    	0.000000    	                	;
 NODE_1325533    	223.9460    	0.031250    	                	;
 NODE_1312653    	218.6470    	0.042500    	                	;
 NODE_1312655    	219.9540    	0.052500    	                	;
 NODE_1316439    	223.9820    	0.004583    	                	;
 NODE_1314469    	222.2930    	0.002500    	                	;
 NODE_1336116    	222.0410    	0.002917    	                	;
 NODE_1336778    	218.8890    	0.002917    	                	;
 NODE_1314475    	221.9610    	0.003333    	                	;
 NODE_1335875    	216.6460    	0.001667    	                	;
 NODE_1314304    	219.4460    	0.005417    	                	;
 NODE_1314459    	223.2600    	0.000833    	                	;
 NODE_1314466    	224.3240    	0.003750    	                	;
 NODE_1320818    	216.5940    	0.001250    	                	;
 NODE_1337691    	216.5100    	0.001250    	                	;
 NODE_1314499    	216.4670    	0.002083    	                	;
 NODE_1312206    	232.3030    	0.000000    	                	;
 NODE_1326654    	259.8620    	0.000417    	                	;
 NODE_5811648    	222.9680    	0.000000    	                	;
 NODE_1313592    	225.5030    	0.002917    	                	;
 NODE_1313598    	226.2500    	0.014167    	                	;
 NODE_1313603    	236.1200    	0.000000    	                	;
 NODE_1338359    	225.1280    	0.039583    	                	;
 NODE_1324687    	219.6220    	0.006250    	                	;
 NODE_1313618    	230.1220    	0.002917    	                	;
 NODE_1314255    	231.0020    	0.004583    	                	;
 NODE_1327944    	226.9260    	0.030833    	                	;
 NODE_1329885    	226.2990    	0.000417    	                	;
 NODE_1314288    	221.3800    	0.003750    	                	;
 NODE_1314746    	217.1390    	0.006667    	                	;
 NODE_1325412    	240.6770    	0.056250    	                	;
 NODE_1313849    	226.1930    	0.000833    	                	;
 NODE_1316427    	223.4100    	0.003333    	                	;
 NODE_1312187    	218.0600    	0.004167    	                	;
 NODE_1313172    	227.7190    	0.003750    	                	;
 NODE_1326478    	227.9670    	0.000000    	                	;
 NODE_1312205    	231.9710    	0.000833    	                	;
 NODE_1326483    	224.9380    	0.013750    	                	;
 NODE_1316210    	221.6040    	0.010000    	                	;
 NODE_1314482    	225.4030    	0.010417    	                	;
 NODE_1314089    	219.7320    	0.006667    	                	;
 NODE_1313555    	217.4910    	0.030833    	                	;
 NODE_1313566    	235.4090    	0.002917    	                	;
 NODE_1315411    	235.4200    	0.016250    	                	;
 NODE_1315416    	228.2510    	0.000000    	                	;
 NODE_1313773    	229.4880    	0.003333    	                	;
 NODE_1324446    	223.4690    	0.001667    	                	;
 NODE_1312666    	219.0700    	0.006250    	                	;
 NODE_1330520    	218.2170    	0.005833    	                	;
 NODE_1338754    	229.4950    	0.002500    	                	;
 NODE_1323407    	221.6080    	0.010417    	                	;
 NODE_1335913    	232.9670    	0.002083    	                	;
 NODE_1335720    	234.1590    	0.006250    	                	;
 NODE_1335719    	234.1200    	0.000417    	                	;
 NODE_1319265    	228.3940    	0.000000    	                	;
 NODE_1320362    	222.7020    	0.002917    	                	;
 NODE_1338982    	218.3360    	0.007083    	                	;
 NODE_1335370    	224.6070    	0.010417    	                	;
 NODE_1332971    	226.3420    	0.000833    	                	;
 NODE_1323275    	216.8060    	0.004583    	                	;
 NODE_1336263    	221.0790    	0.000417    	                	;
 NODE_1323274    	219.2380    	0.007500    	                	;
 NODE_1327086    	224.0170    	0.004167    	                	;
 NODE_1323241    	221.8170    	0.004167    	                	;
 NODE_1323631    	236.2100    	0.004167    	                	;
 NODE_1315860    	224.3080    	0.003333    	                	;
 NODE_1315361    	225.0370    	0.008750    	                	;
 NODE_1324015    	221.9050    	0.000000    	                	;
 NODE_6634405    	222.7110    	0.005833    	                	;
 NODE_6634336    	217.4320    	0.000000    	                	;
 NODE_1332041    	221.5580    	0.702083    	                	;
 NODE_1335952    	225.6000    	0.000000    	                	;
 NODE_1322979    	225.9640    	0.006667    	                	;
 NODE_1314267    	225.8580    	0.004167    	                	;
 NODE_1314270    	223.9960    	0.005417    	                	;
 NODE_1314249    	229.7310    	0.000417    	                	;
 NODE_1336287    	226.4960    	0.005000    	                	;
 NODE_1313605    	236.3120    	0.000417    	                	;
 NODE_1338255    	226.0390    	0.000000    	                	;
 NODE_1313166    	228.6200    	0.020000    	                	;
 NODE_1313842    	233.0530    	0.000000    	                	;
 NODE_1312875    	222.3030    	0.018750    	                	;
 NODE_1313085    	227.2640    	0.062083    	                	;
 NODE_1338455    	221.6380    	0.000000    	                	;
 NODE_1312579    	226.0410    	0.007500    	                	;
 NODE_1336639    	228.4320    	0.004167    	                	;
 NODE_1313382    	220.6450    	0.005417    	                	;
 NODE_1330526    	221.5230    	0.005000    	                	;
 NODE_1313391    	221.4160    	0.007083    	                	;
 NODE_1318424    	221.2520    	0.150833    	                	;
 NODE_1318425    	221.9290    	0.025417    	                	;
 NODE_1313372    	218.6740    	0.008333    	                	;
 NODE_1312447    	216.7450    	0.003750    	                	;
 NODE_1324438    	215.6260    	0.000000    	                	;
 NODE_1322700    	215.1340    	0.003750    	                	;
 NODE_1324177    	221.5780    	0.000000    	                	;
 NODE_1318404    	229.4550    	0.000417    	                	;
 NODE_1337046    	221.6860    	0.467500    	                	;
 NODE_1329681    	222.5960    	0.000000    	                	;
 NODE_1325197    	221.9590    	0.000000    	                	;
 NODE_1320810    	217.7570    	0.008750    	                	;
 NODE_1313554    	217.6200    	0.002083    	                	;
 NODE_1314485    	220.9810    	0.005000    	                	;
 NODE_1326456    	218.7230    	0.005000    	                	;
 NODE_1314494    	219.0230    	0.001250    	                	;
 NODE_1330103    	225.2450    	0.000000    	                	;
 NODE_1316443    	218.4040    	0.002917    	                	;
 NODE_1320817    	221.9350    	0.000833    	                	;
 NODE_1316445    	223.2850    	0.011250    	                	;
 NODE_1314502    	218.0240    	0.002500    	                	;
 NODE_1318396    	228.4280    	0.010417    	                	;
 NODE_1314303    	218.7160    	0.004583    	                	;
 NODE_1314305    	219.5770    	0.007500    	                	;
 NODE_1338185    	221.7520    	0.041667    	                	;
 NODE_1314450    	219.3730    	0.007083    	                	;
 NODE_1314455    	221.4690    	0.004583    	                	;
 NODE_1316436    	221.6520    	0.002083    	                	;
 NODE_1314462    	221.1030    	0.026667    	                	;
 NODE_1317970    	218.8130    	0.007083    	                	;
 NODE_1314498    	216.5250    	0.002500    	                	;
 NODE_1312202    	225.9080    	0.000000    	                	;
 NODE_5811583    	223.8030    	0.000000    	                	;
 NODE_5811570    	223.3740    	0.000000    	                	;
 NODE_5811505    	221.3270    	0.000000    	                	;
 NODE_1313604    	236.3660    	0.004167    	                	;
 NODE_1324686    	239.3780    	0.000000    	                	;
 NODE_1314246    	230.6640    	0.000000    	                	;
 NODE_1314256    	231.1880    	0.004583    	                	;
 NODE_1325290    	222.3580    	0.011250    	                	;
 NODE_1326250    	220.8030    	0.017083    	                	;
 NODE_1313116    	224.5320    	0.004583    	                	;
 NODE_1313117    	224.1550    	0.003750    	                	;
 NODE_1318377    	222.8340    	0.002917    	                	;
 NODE_1316426    	222.6710    	0.006667    	                	;
 NODE_1314741    	217.0980    	0.012917    	                	;
 NODE_1314745    	217.7320    	0.005000    	                	;
 NODE_1316908    	217.3420    	0.004167    	                	;
 NODE_1335889    	226.8220    	0.009583    	                	;
 NODE_1324139    	225.4330    	0.000000    	                	;
 NODE_1321358    	219.6360    	0.005000    	                	;
 NODE_1336266    	230.5720    	0.006667    	                	;
 NODE_1312203    	227.4680    	0.069583    	                	;
 NODE_1316207    	228.1040    	0.004583    	                	;
 NODE_1338580    	222.3060    	0.005000    	                	;
 NODE_1326485    	222.2620    	0.005417    	                	;
 NODE_1316211    	219.6760    	0.002083    	                	;
 NODE_1313556    	218.0310    	0.007083    	                	;
 NODE_1312640    	217.6250    	0.002917    	                	;
 NODE_1324433    	221.2590    	0.005000    	                	;
 NODE_1336261    	217.5250    	0.026667    	                	;
 NODE_1324440    	219.1640    	0.003750    	                	;
 NODE_1312391    	230.6490    	0.000417    	                	;
 NODE_1326651    	216.3060    	0.005000    	                	;
 NODE_1321928    	217.5660    	0.007917    	                	;
 NODE_1312663    	220.0550    	0.005000    	                	;
 NODE_1324462    	219.2640    	0.005000    	                	;
 NODE_1324016    	221.7490    	0.000417    	                	;
 NODE_1327068    	220.6440    	0.004583    	                	;
 NODE_1323398    	240.4650    	0.000417    	                	;
 NODE_1323400    	231.4130    	0.009167    	                	;
 NODE_1335729    	233.0080    	0.001667    	                	;
 NODE_1335728    	233.1040    	0.003750    	                	;
 NODE_1335725    	233.8400    	0.008333    	                	;
 NODE_1317874    	219.9410    	0.009583    	                	;
 NODE_1337604    	216.0710    	0.002917    	                	;
 NODE_1319280    	212.1510    	0.000417    	                	;
 NODE_1332037    	228.7600    	0.004583    	                	;
 NODE_1325007    	229.5720    	0.000000    	                	;
 NODE_1336797    	225.5330    	0.014167    	                	;
 NODE_1337176    	218.6740    	0.006250    	                	;
 NODE_1337174    	219.0070    	0.001250    	                	;
 NODE_1337172    	219.6460    	0.005833    	                	;
 NODE_1319274    	231.6640    	0.001250    	                	;
 NODE_1326035    	235.7360    	0.038333    	                	;
 NODE_1338932    	224.9440    	0.000000    	                	;
 NODE_1317142    	228.5920    	0.003333    	                	;
 NODE_1323273    	218.3810    	0.005833    	                	;
 NODE_1338124    	233.1920    	0.010417    	                	;
 NODE_1318269    	221.1200    	0.000417    	                	;
 NODE_1324112    	221.0880    	0.003333    	                	;
 NODE_1324114    	220.8260    	0.002500    	                	;
 NODE_1318270    	221.0650    	0.009583    	                	;
 NODE_1318271    	220.8150    	0.012917    	                	;
 NODE_1324118    	216.5350    	0.000000    	                	;
 NODE_1320191    	231.5450    	0.007083    	                	;
 NODE_1318284    	230.9100    	0.004167    	                	;
 NODE_6634346    	212.9400    	0.022500    	                	;
 NODE_1315802    	229.4520    	0.000000    	                	;
 NODE_1330533    	257.8220    	0.000000    	                	;
 NODE_1315568    	224.1940    	0.037083    	                	;
 NODE_1324664    	215.3550    	0.003750    	                	;
 NODE_1337177    	219.2670    	0.000000    	                	;
 NODE_1336025    	211.9210    	0.018333    	                	;
 NODE_1336392    	215.2770    	0.000000    	                	;
 NODE_1335915    	234.0970    	0.000000    	                	;
 NODE_1317940    	221.6600    	0.010833    	                	;
 NODE_1314247    	231.2190    	0.001250    	                	;
 NODE_1315936    	227.9520    	0.005000    	                	;
 NODE_1337580    	223.2390    	0.000000    	                	;
 NODE_1313164    	228.6260    	0.005417    	                	;
 NODE_1324640    	218.7110    	0.003333    	                	;
 NODE_1313636    	230.9230    	0.004167    	                	;
 NODE_1313843    	231.0990    	0.015833    	                	;
 NODE_1313623    	220.4790    	0.023750    	                	;
 NODE_1326970    	218.2340    	0.000000    	                	;
 NODE_1327164    	231.0950    	0.004167    	                	;
 NODE_1313092    	226.1510    	0.000000    	                	;
 NODE_1317869    	229.2340    	0.030000    	                	;
 NODE_1325000    	224.3950    	0.000000    	                	;
 NODE_1317464    	226.6240    	0.000000    	                	;
 NODE_1317939    	222.7160    	0.190000    	                	;
 NODE_1336262    	220.4480    	0.006250    	                	;
 NODE_1330529    	220.1160    	0.005417    	                	;
 NODE_1313593    	224.5260    	0.005417    	                	;
 NODE_1336660    	219.8620    	0.017083    	                	;
 NODE_1312656    	220.6330    	0.023750    	                	;
 NODE_1312667    	218.2340    	0.005000    	                	;
 NODE_1323638    	229.7290    	0.697083    	                	;
 NODE_1326906    	224.5230    	0.000000    	                	;
 NODE_1316729    	228.3700    	0.000000    	                	;
 NODE_1324960    	235.6840    	0.030000    	                	;
 NODE_1318308    	218.0370    	0.003333    	                	;
 NODE_1324141    	221.4560    	0.000000    	                	;
 NODE_1313770    	230.0910    	0.000000    	                	;
 NODE_1315404    	218.9510    	0.000000    	                	;
 NODE_1314488    	219.7500    	0.012500    	                	;
 NODE_1314492    	219.1890    	0.010417    	                	;
 NODE_1331458    	233.8910    	0.000000    	                	;
 NODE_1313561    	232.0540    	0.000000    	                	;
 NODE_1324145    	225.7610    	0.000000    	                	;
 NODE_1318611    	237.5890    	0.067917    	                	;
 NODE_1312652    	216.2300    	0.005833    	                	;
 NODE_1331165    	217.5290    	0.023333    	                	;
 NODE_1337518    	218.0500    	0.001667    	                	;
 NODE_1316440    	222.0920    	0.007917    	                	;
 NODE_1314471    	221.9650    	0.005000    	                	;
 NODE_1314474    	219.0300    	0.005000    	                	;
 NODE_1314476    	222.7560    	0.012500    	                	;
 NODE_1314478    	222.6220    	0.007500    	                	;
 NODE_1314449    	219.7920    	0.005417    	                	;
 NODE_1312200    	224.5390    	0.000000    	                	;
 NODE_1314451    	220.6700    	0.002917    	                	;
 NODE_1335872    	221.6550    	0.008333    	                	;
 NODE_1335674    	220.6540    	0.002917    	                	;
 NODE_1316451    	216.6600    	0.009167    	                	;
 NODE_1314497    	216.6100    	0.005000    	                	;
 NODE_1317974    	222.5730    	0.000000    	                	;
 NODE_1315023    	226.7350    	0.000000    	                	;
 NODE_1318303    	218.7730    	0.000000    	                	;
 NODE_5810227    	224.3190    	0.002917    	                	;
 NODE_6634392    	213.9680    	0.001250    	                	;
 NODE_5811622    	223.8020    	0.000000    	                	;
 NODE_5811531    	222.1410    	0.000000    	                	;
 NODE_5811466    	224.5950    	0.000000    	                	;
 NODE_1336663    	220.3190    	0.005833    	                	;
 NODE_1321356    	236.2550    	0.005417    	                	;
 NODE_1324635    	220.1380    	0.009167    	                	;
 NODE_1314245    	230.2990    	0.004583    	                	;
 NODE_1336666    	228.4910    	0.003333    	                	;
 NODE_1335870    	231.4430    	0.022083    	                	;
 NODE_1314285    	220.1900    	0.008750    	                	;
 NODE_1314286    	221.2140    	0.002083    	                	;
 NODE_1314287    	221.2900    	0.004583    	                	;
 NODE_1316907    	216.8580    	0.006667    	                	;
 NODE_1324137    	228.1590    	0.000000    	                	;
 NODE_1320816    	222.8520    	0.005000    	                	;
 NODE_1314296    	223.9910    	0.008333    	                	;
 NODE_1314297    	223.9680    	0.004583    	                	;
 NODE_1314298    	224.4440    	0.001667    	                	;
 NODE_1322173    	225.8590    	0.007500    	                	;
 NODE_1335675    	218.2310    	0.004583    	                	;
 NODE_1312191    	218.6240    	0.003750    	                	;
 NODE_1312204    	229.2260    	0.002083    	                	;
 NODE_1318391    	244.7740    	0.000000    	                	;
 NODE_1317694    	215.6330    	0.000417    	                	;
 NODE_1335668    	215.7040    	0.005417    	                	;
 NODE_1319840    	229.2200    	0.003750    	                	;
 NODE_1321673    	217.4800    	0.005000    	                	;
 NODE_1317699    	223.6450    	0.003333    	                	;
 NODE_1326123    	229.2390    	0.008750    	                	;
 NODE_1312578    	226.2270    	0.013750    	                	;
 NODE_1313383    	220.8190    	0.033750    	                	;
 NODE_1316039    	221.4560    	0.000000    	                	;
 NODE_1324017    	221.2750    	0.000000    	                	;
 NODE_1317868    	237.9650    	0.004583    	                	;
 NODE_1335912    	232.9780    	0.005833    	                	;
 NODE_1313617    	234.0780    	0.004167    	                	;
 NODE_1313616    	234.0380    	0.008333    	                	;
 NODE_1338466    	226.3860    	0.004167    	                	;
 NODE_1338983    	218.4320    	0.001250    	                	;
 NODE_1324914    	234.7810    	0.000833    	                	;
 NODE_1336580    	228.2200    	0.008333    	                	;
 NODE_1338931    	223.1620    	0.010833    	                	;
 NODE_1338930    	222.1820    	0.000000    	                	;
 NODE_1337954    	224.9190    	0.001250    	                	;
 NODE_1323277    	220.2570    	0.007500    	                	;
 NODE_1323272    	221.2740    	0.006250    	                	;
 NODE_1327081    	225.1910    	0.007083    	                	;
 NODE_1337887    	235.4350    	0.002917    	                	;
 NODE_1336665    	235.8990    	0.007500    	                	;
 NODE_1324108    	236.3350    	0.007500    	                	;
 NODE_1327076    	224.6960    	0.005417    	                	;
 NODE_1341734    	218.6760    	0.000417    	                	;
 NODE_1313088    	223.7380    	0.007917    	                	;
 NODE_1322254    	228.5310    	0.000000    	                	;
 NODE_1318060    	236.4260    	0.001250    	                	;
 NODE_1315513    	222.9330    	0.021250    	                	;
 NODE_1320344    	220.9200    	0.081667    	                	;
 NODE_5811758    	224.1860    	0.000000    	                	;
 NODE_1325225    	221.4030    	0.005000    	                	;
 NODE_1325227    	239.6220    	0.000000    	                	;
 NODE_1314263    	227.0020    	0.003333    	                	;
 NODE_1336288    	226.5990    	0.002500    	                	;
 NODE_1314264    	226.6000    	0.012083    	                	;
 NODE_1338891    	223.8590    	0.013750    	                	;
 NODE_1314282    	227.9610    	0.000833    	                	;
 NODE_1316422    	227.7790    	0.003333    	                	;
 NODE_1316423    	226.7830    	0.009167    	                	;
 NODE_1314292    	222.3090    	0.000000    	                	;
 NODE_1326967    	236.4400    	0.000000    	                	;
 NODE_1322773    	219.6240    	0.045833    	                	;
 NODE_1332970    	223.1120    	0.000000    	                	;
 NODE_1324639    	218.7420    	0.003333    	                	;
 NODE_1313621    	218.5440    	0.000000    	                	;
 NODE_1313622    	221.8910    	0.000000    	                	;
 NODE_1313625    	232.6390    	0.006250    	                	;
 NODE_1313627    	231.5970    	0.003750    	                	;
 NODE_1338377    	228.4190    	0.006250    	                	;
 NODE_1313591    	225.5250    	0.002500    	                	;
 NODE_1330531    	225.4000    	0.007917    	                	;
 NODE_1313385    	220.9100    	0.002500    	                	;
 NODE_1313392    	221.5560    	0.007500    	                	;
 NODE_1324445    	222.2730    	0.004583    	                	;
 NODE_1312657    	219.6840    	0.029583    	                	;
 NODE_1312661    	220.6840    	0.018333    	                	;
 NODE_1336197    	217.0190    	0.000000    	                	;
 NODE_1312415    	226.9230    	0.000000    	                	;
 NODE_1312416    	229.4220    	0.002500    	                	;
 NODE_1312418    	229.9960    	0.001250    	                	;
 NODE_1338814    	227.5140    	0.000000    	                	;
 NODE_1325796    	261.0290    	0.000000    	                	;
 NODE_1326249    	221.1790    	0.039583    	                	;
 NODE_1324138    	230.3880    	0.000000    	                	;
 NODE_1313771    	228.8230    	0.000000    	                	;
 NODE_1315405    	217.1620    	0.014583    	                	;
 NODE_1316447    	219.2040    	0.006250    	                	;
 NODE_1323660    	217.8770    	0.000000    	                	;
 NODE_1313558    	219.8040    	0.001667    	                	;
 NODE_1313560    	236.8870    	0.000000    	                	;
 NODE_1315408    	235.2580    	0.010417    	                	;
 NODE_1312644    	217.9690    	0.019583    	                	;
 NODE_1312650    	217.2670    	0.007917    	                	;
 NODE_1318423    	220.0260    	0.078333    	                	;
 NODE_1314470    	222.0700    	0.001667    	                	;
 NODE_1316453    	217.5410    	0.007917    	                	;
 NODE_1312399    	228.3970    	0.002083    	                	;
 NODE_1318321    	225.4240    	0.000833    	                	;
 NODE_1320582    	225.0600    	0.000000    	                	;
 NODE_1314306    	219.8090    	0.005417    	                	;
 NODE_1316432    	219.8280    	0.008750    	                	;
 NODE_1316433    	219.7060    	0.002917    	                	;
 NODE_1314460    	223.3810    	0.010417    	                	;
 NODE_1316438    	221.4710    	0.000000    	                	;
 NODE_1324764    	230.1240    	0.000000    	                	;
 NODE_1324765    	229.3480    	0.000000    	                	;
 NODE_5811700    	221.3240    	0.000000    	                	;
 NODE_5811609    	224.6230    	0.000000    	                	;
 NODE_5811596    	224.2210    	0.000000    	                	;
 NODE_5811544    	222.5540    	0.000000    	                	;
 NODE_1313589    	224.9360    	0.007083    	                	;
 NODE_1313590    	225.4840    	0.000417    	                	;
 NODE_1313594    	224.4040    	0.014167    	                	;
 NODE_1330532    	224.8910    	0.028750    	                	;
 NODE_1313597    	226.1990    	0.005000    	                	;
 NODE_1336664    	225.9510    	0.006250    	                	;
 NODE_1313607    	236.1690    	0.006250    	                	;
 NODE_1321092    	219.8070    	0.020000    	                	;
 NODE_1325176    	234.0990    	0.008333    	                	;
 NODE_1337688    	231.1930    	0.004167    	                	;
 NODE_1315932    	230.9720    	0.007083    	                	;
 NODE_1314248    	231.4850    	0.004583    	                	;
 NODE_1325515    	229.9430    	0.003750    	                	;
 NODE_1316192    	220.4670    	0.035417    	                	;
 NODE_1316424    	220.9360    	0.002083    	                	;
 NODE_1314290    	222.1690    	0.003333    	                	;
 NODE_1314744    	216.7810    	0.013333    	                	;
 NODE_1326458    	218.3140    	0.006667    	                	;
 NODE_1316430    	225.0920    	0.003750    	                	;
 NODE_1326482    	225.0350    	0.006667    	                	;
 NODE_1326484    	224.0430    	0.033750    	                	;
 NODE_1326494    	217.6950    	0.000000    	                	;
 NODE_1326495    	217.7160    	0.000833    	                	;
 NODE_1326649    	217.6390    	0.006250    	                	;
 NODE_1327696    	220.4070    	0.005000    	                	;
 NODE_1313564    	230.5340    	0.000000    	                	;
 NODE_1315415    	229.2690    	0.028750    	                	;
 NODE_1318417    	228.6000    	0.000833    	                	;
 NODE_1312450    	224.9530    	0.002917    	                	;
 NODE_1312451    	224.0280    	0.004167    	                	;
 NODE_1324437    	215.7220    	0.009167    	                	;
 NODE_1312645    	217.9310    	0.030417    	                	;
 NODE_1324997    	225.4470    	0.004167    	                	;
 NODE_1324447    	223.2300    	0.002500    	                	;
 NODE_1317462    	230.7210    	0.005417    	                	;
 NODE_1312392    	230.1150    	0.001667    	                	;
 NODE_1321946    	230.0450    	0.000833    	                	;
 NODE_1326650    	216.0890    	0.005833    	                	;
 NODE_1331099    	221.5610    	0.005833    	                	;
 NODE_1330522    	220.4650    	0.005833    	                	;
 NODE_1336170    	220.4870    	0.005000    	                	;
 NODE_1313379    	220.0810    	0.005417    	                	;
 NODE_1313381    	220.4280    	0.005000    	                	;
 NODE_1336253    	222.2940    	0.000000    	                	;
 NODE_1338158    	221.1870    	0.000000    	                	;
 NODE_1323399    	239.2300    	0.003333    	                	;
 NODE_1337679    	230.5210    	0.035417    	                	;
 NODE_1323402    	229.6610    	0.000833    	                	;
 NODE_1335726    	233.4380    	0.010833    	                	;
 NODE_1335722    	233.9480    	0.008333    	                	;
 NODE_1335721    	234.1890    	0.013750    	                	;
 NODE_1313613    	234.4300    	0.003333    	                	;
 NODE_1323411    	216.7160    	0.004167    	                	;
 NODE_1317753    	221.1670    	0.000000    	                	;
 NODE_1322193    	224.8710    	0.000000    	                	;
 NODE_1335828    	232.3650    	0.005833    	                	;
 NODE_1335372    	225.1320    	0.006667    	                	;