[TITLE]
Converted from Epanet to Staci, case name: villasor2.spr


[JUNCTIONS]
;ID              	Elev        	Demand      	Pattern         
 NODE_1336044    	204.8329    	0.000000    	                	;
 NODE_1313063    	219.3982    	0.000000    	                	;
 NODE_1312884    	218.8642    	0.000000    	                	;
 NODE_1314037    	214.6964    	0.013750    	                	;
 NODE_1316904    	218.2736    	0.004583    	                	;
 NODE_1314731    	217.6273    	0.015833    	                	;
 NODE_1312161    	217.8210    	0.000000    	                	;
 NODE_1324644    	206.1318    	0.061667    	                	;
 NODE_1313827    	216.5419    	0.068750    	                	;
 NODE_1327072    	210.9559    	0.000000    	                	;
 NODE_1326812    	202.5432    	0.056250    	                	;
 NODE_1312168    	217.0056    	0.004167    	                	;
 NODE_1315908    	213.6717    	0.011250    	                	;
 NODE_1314027    	213.7945    	0.012917    	                	;
 NODE_1314148    	217.0100    	0.004583    	                	;
 NODE_1319986    	216.8169    	0.000000    	                	;
 NODE_1324836    	217.6328    	0.014167    	                	;
 NODE_1324651    	205.2728    	0.000000    	                	;
 NODE_1313916    	221.4314    	0.002500    	                	;
 NODE_1312175    	225.2617    	0.007917    	                	;
 NODE_1317779    	211.3099    	0.001250    	                	;
 NODE_1313954    	209.5180    	0.019583    	                	;
 NODE_1325981    	212.6642    	0.022917    	                	;
 NODE_1314908    	214.8466    	0.004583    	                	;
 NODE_1313933    	216.4359    	0.003750    	                	;
 NODE_1314404    	214.9726    	0.001667    	                	;
 NODE_1318000    	218.2865    	0.018750    	                	;
 NODE_1314387    	208.4380    	0.002500    	                	;
 NODE_1317713    	199.0144    	0.028750    	                	;
 NODE_1337227    	216.8756    	0.001667    	                	;
 NODE_1325993    	214.2424    	0.039167    	                	;
 NODE_1331404    	223.6763    	0.000833    	                	;
 NODE_1335689    	215.7582    	0.017083    	                	;
 NODE_1314197    	215.3945    	0.000000    	                	;
 NODE_1312872    	218.6838    	0.004167    	                	;
 NODE_1320551    	219.8609    	0.005417    	                	;
 NODE_1315688    	211.5523    	0.008750    	                	;
 NODE_1329878    	211.1457    	0.002500    	                	;
 NODE_1312136    	229.0574    	0.007500    	                	;
 NODE_1311932    	216.9193    	0.011250    	                	;
 NODE_1312914    	225.4839    	0.002917    	                	;
 NODE_1318949    	225.5648    	0.000000    	                	;
 NODE_1312146    	228.5224    	0.008333    	                	;
 NODE_1329227    	216.3914    	0.000417    	                	;
 NODE_1313684    	216.5373    	0.002917    	                	;
 NODE_1335686    	216.5019    	0.002500    	                	;
 NODE_1317538    	217.1240    	0.000417    	                	;
 NODE_1325758    	214.1327    	0.007083    	                	;
 NODE_1318170    	211.9587    	0.000000    	                	;
 NODE_1314842    	211.9520    	0.002500    	                	;
 NODE_1325739    	215.1965    	0.000000    	                	;
 NODE_1325733    	215.5356    	0.014583    	                	;
 NODE_1325070    	217.6330    	0.071667    	                	;
 NODE_1325089    	216.3329    	0.019583    	                	;
 NODE_1325093    	215.9569    	0.009583    	                	;
 NODE_1338374    	221.0024    	0.027917    	                	;
 NODE_1315051    	211.6866    	0.002083    	                	;
 NODE_1313433    	211.6709    	0.002083    	                	;
 NODE_1331406    	215.5307    	0.009583    	                	;
 NODE_1315033    	219.8586    	0.004167    	                	;
 NODE_1317344    	214.0524    	0.052917    	                	;
 NODE_1315179    	214.8483    	0.015417    	                	;
 NODE_1314978    	215.4212    	0.003750    	                	;
 NODE_1315144    	216.4182    	0.003333    	                	;
 NODE_1318871    	210.3014    	0.002500    	                	;
 NODE_1312675    	210.2683    	0.000000    	                	;
 NODE_1312240    	217.1144    	0.002083    	                	;
 NODE_1313397    	216.6059    	0.002500    	                	;
 NODE_1314707    	211.3206    	0.007917    	                	;
 NODE_1321344    	216.9949    	0.000833    	                	;
 NODE_1330561    	202.1869    	0.002500    	                	;
 NODE_1315444    	205.1882    	0.018750    	                	;
 NODE_1315214    	206.1658    	0.025833    	                	;
 NODE_1315252    	204.6043    	0.005000    	                	;
 NODE_1317534    	220.0616    	0.004583    	                	;
 NODE_1312031    	229.3249    	0.012917    	                	;
 NODE_1313459    	229.8471    	0.020833    	                	;
 NODE_1324512    	210.0812    	0.000000    	                	;
 NODE_1324026    	199.2880    	0.000000    	                	;
 NODE_1324940    	216.8685    	0.000000    	                	;
 NODE_1325146    	215.4071    	0.000000    	                	;
 NODE_1326776    	201.8465    	0.000000    	                	;
 NODE_1324104    	216.5048    	0.000000    	                	;
 NODE_1314696    	212.8424    	0.001250    	                	;
 NODE_1318131    	217.2684    	0.001667    	                	;
 NODE_1312569    	214.9123    	0.038750    	                	;
 NODE_1312769    	215.3255    	0.000833    	                	;
 NODE_1315518    	203.4643    	0.006250    	                	;
 NODE_1324977    	215.6191    	0.005833    	                	;
 NODE_1317678    	222.6814    	0.000000    	                	;
 NODE_1335936    	214.2166    	0.003750    	                	;
 NODE_1322027    	214.1766    	0.027917    	                	;
 NODE_1312780    	214.3118    	0.000000    	                	;
 NODE_1322178    	225.6324    	0.004167    	                	;
 NODE_1313124    	218.1302    	0.000000    	                	;
 NODE_1318569    	222.2195    	0.005000    	                	;
 NODE_1315462    	215.5259    	0.001667    	                	;
 NODE_1324554    	213.4165    	0.000000    	                	;
 NODE_1313199    	211.6005    	0.007500    	                	;
 NODE_1318831    	191.8251    	0.000417    	                	;
 NODE_1324767    	215.5895    	0.000000    	                	;
 NODE_1325623    	190.4130    	0.000000    	                	;
 NODE_5816504    	214.5350    	0.035833    	                	;
 NODE_1323641    	216.0699    	0.000000    	                	;
 NODE_1317415    	178.5172    	0.004583    	                	;
 NODE_1324523    	201.4124    	0.007500    	                	;
 NODE_1318796    	200.5694    	0.004167    	                	;
 NODE_1321899    	209.6705    	0.006250    	                	;
 NODE_1318181    	216.3562    	0.183750    	                	;
 NODE_1318183    	201.0268    	0.008333    	                	;
 NODE_1325158    	205.7901    	0.017500    	                	;
 NODE_1337016    	220.6080    	0.017083    	                	;
 NODE_1318605    	220.1888    	0.012500    	                	;
 NODE_1323551    	205.8196    	0.005417    	                	;
 NODE_1323562    	203.7929    	0.012083    	                	;
 NODE_1317133    	205.5097    	0.054583    	                	;
 NODE_1316194    	218.7767    	0.014167    	                	;
 NODE_1316195    	220.2612    	0.002500    	                	;
 NODE_1326451    	220.6422    	0.007500    	                	;
 NODE_1326208    	210.7816    	0.005000    	                	;
 NODE_1316179    	210.2091    	0.010000    	                	;
 NODE_1326057    	207.6133    	0.003750    	                	;
 NODE_1324070    	192.9388    	0.000000    	                	;
 NODE_1315205    	210.6747    	0.010000    	                	;
 NODE_1315232    	203.7637    	0.009167    	                	;
 NODE_1315432    	203.7594    	0.002083    	                	;
 NODE_1317031    	225.2091    	0.008333    	                	;
 NODE_1330781    	215.7364    	0.027500    	                	;
 NODE_1320341    	203.4390    	0.004583    	                	;
 NODE_1313434    	211.6720    	0.005000    	                	;
 NODE_1327193    	211.1804    	0.000000    	                	;
 NODE_1314151    	216.6087    	0.072500    	                	;
 NODE_1314344    	207.0710    	0.011667    	                	;
 NODE_1314348    	206.1805    	0.000000    	                	;
 NODE_1338180    	205.6048    	0.007917    	                	;
 NODE_1323930    	215.3467    	0.003750    	                	;
 NODE_1323948    	215.5159    	0.005000    	                	;
 NODE_1336603    	215.3288    	0.005833    	                	;
 NODE_1318777    	203.7857    	0.005833    	                	;
 NODE_1313218    	206.9184    	0.011250    	                	;
 NODE_1324565    	221.9596    	0.004583    	                	;
 NODE_1312346    	223.7014    	0.000000    	                	;
 NODE_1320803    	224.1027    	0.002917    	                	;
 NODE_1312350    	225.6841    	0.003333    	                	;
 NODE_1335858    	226.0117    	0.000417    	                	;
 NODE_1325633    	214.4104    	0.048333    	                	;
 NODE_1325643    	215.4496    	0.004167    	                	;
 NODE_1316846    	214.7420    	0.000000    	                	;
 NODE_1323367    	214.5888    	0.004167    	                	;
 NODE_1313833    	214.5003    	0.020417    	                	;
 NODE_1314536    	199.6345    	0.007917    	                	;
 NODE_1314538    	204.4260    	0.005417    	                	;
 NODE_1323383    	212.5971    	0.017500    	                	;
 NODE_1329684    	212.4110    	0.015000    	                	;
 NODE_1323393    	203.9848    	0.020000    	                	;
 NODE_1315859    	215.3125    	0.008333    	                	;
 NODE_1311953    	212.4293    	0.010833    	                	;
 NODE_1316607    	216.5480    	0.001250    	                	;
 NODE_1324535    	217.3351    	0.019167    	                	;
 NODE_1321155    	215.6355    	0.006667    	                	;
 NODE_1324645    	204.8307    	0.000000    	                	;
 NODE_1336641    	205.7195    	0.010000    	                	;
 NODE_1316615    	216.2442    	0.002500    	                	;
 NODE_1315514    	211.1208    	0.034167    	                	;
 NODE_1316327    	214.6082    	0.032083    	                	;
 NODE_1324365    	206.5325    	0.032917    	                	;
 NODE_1321085    	245.7986    	0.006250    	                	;
 NODE_1326904    	212.8433    	0.035833    	                	;
 NODE_1336167    	216.1133    	0.010833    	                	;
 NODE_1323821    	216.7416    	0.007083    	                	;
 NODE_1330272    	218.0736    	0.000000    	                	;
 NODE_1324292    	210.5773    	0.005417    	                	;
 NODE_1337859    	178.2039    	0.003333    	                	;
 NODE_1337858    	208.2090    	0.009583    	                	;
 NODE_1336036    	237.7798    	0.000000    	                	;
 NODE_1315561    	212.3880    	0.004167    	                	;
 NODE_1315567    	212.3591    	0.002500    	                	;
 NODE_1316974    	209.3845    	0.011250    	                	;
 NODE_1316976    	210.1803    	0.025417    	                	;
 NODE_1325888    	209.4204    	0.003333    	                	;
 NODE_1333442    	217.8838    	0.019583    	                	;
 NODE_1321447    	208.6262    	0.082917    	                	;
 NODE_1331456    	204.6629    	0.002083    	                	;
 NODE_1314635    	221.1023    	0.007500    	                	;
 NODE_1323235    	213.7913    	0.002500    	                	;
 NODE_1321937    	216.3177    	0.016667    	                	;
 NODE_1313240    	230.2624    	0.000000    	                	;
 NODE_1330688    	243.7206    	0.000000    	                	;
 NODE_1332976    	218.7142    	0.042917    	                	;
 NODE_1311882    	213.0958    	0.004583    	                	;
 NODE_1326049    	208.2508    	0.002917    	                	;
 NODE_1335655    	208.4450    	0.000833    	                	;
 NODE_1326052    	209.1739    	0.000000    	                	;
 NODE_1330277    	215.6427    	0.000833    	                	;
 NODE_1336590    	205.1488    	0.004583    	                	;
 NODE_1323435    	198.9951    	0.009583    	                	;
 NODE_1323441    	201.4656    	0.004167    	                	;
 NODE_1325241    	196.8709    	0.003333    	                	;
 NODE_1325138    	213.5283    	0.020833    	                	;
 NODE_1325151    	215.7318    	0.013333    	                	;
 NODE_1338595    	219.8199    	0.002500    	                	;
 NODE_1335812    	217.6181    	0.000833    	                	;
 NODE_1330830    	202.9028    	0.008333    	                	;
 NODE_1330824    	214.6402    	0.005417    	                	;
 NODE_1317876    	197.0089    	0.008750    	                	;
 NODE_1323416    	197.8547    	0.003750    	                	;
 NODE_1319573    	222.3938    	0.002917    	                	;
 NODE_1326518    	210.5323    	0.000000    	                	;
 NODE_1316344    	221.2852    	0.001250    	                	;
 NODE_1314184    	218.4494    	0.000000    	                	;
 NODE_1338888    	215.1508    	0.019583    	                	;
 NODE_1313831    	214.0506    	0.021250    	                	;
 NODE_1311969    	216.5033    	0.002500    	                	;
 NODE_1311970    	216.5230    	0.011667    	                	;
 NODE_1314147    	217.0063    	0.011667    	                	;
 NODE_1325978    	214.3665    	0.003750    	                	;
 NODE_1325987    	213.6002    	0.029167    	                	;
 NODE_1327211    	223.4509    	0.006250    	                	;
 NODE_1314779    	219.8541    	0.003333    	                	;
 NODE_1312059    	218.2942    	0.005833    	                	;
 NODE_1318886    	205.2837    	0.007083    	                	;
 NODE_1313710    	219.3955    	0.011250    	                	;
 NODE_1321900    	209.9933    	0.003333    	                	;
 NODE_1330573    	194.6793    	0.000000    	                	;
 NODE_1319780    	194.1785    	0.004583    	                	;
 NODE_1337001    	225.2939    	0.000417    	                	;
 NODE_1322024    	217.0856    	0.002083    	                	;
 NODE_1331464    	204.1220    	0.000833    	                	;
 NODE_1311895    	223.7036    	0.013333    	                	;
 NODE_1325411    	201.3529    	0.000000    	                	;
 NODE_1325257    	222.9762    	0.000000    	                	;
 NODE_1313406    	219.1378    	0.002083    	                	;
 NODE_1314943    	214.8115    	0.000000    	                	;
 NODE_1314948    	207.8556    	0.011667    	                	;
 NODE_1314507    	213.5491    	0.003750    	                	;
 NODE_1317295    	214.1825    	0.008333    	                	;
 NODE_1312185    	221.3806    	0.001667    	                	;
 NODE_1318570    	221.4844    	0.002917    	                	;
 NODE_1312034    	220.8668    	0.005417    	                	;
 NODE_1312230    	216.9381    	0.004583    	                	;
 NODE_1313205    	213.2837    	0.003333    	                	;
 NODE_1323865    	214.1279    	0.000000    	                	;
 NODE_1318660    	202.0557    	0.026250    	                	;
 NODE_1337627    	217.6275    	0.001250    	                	;
 NODE_1326233    	208.3523    	0.000833    	                	;
 NODE_1311906    	223.0622    	0.008333    	                	;
 NODE_1317032    	224.3845    	0.004167    	                	;
 NODE_1315442    	205.3812    	0.000417    	                	;
 NODE_1314353    	205.6042    	0.004583    	                	;
 NODE_1321709    	220.8159    	0.001667    	                	;
 NODE_1325630    	215.0962    	0.014583    	                	;
 NODE_1325637    	215.1227    	0.004167    	                	;
 NODE_1338819    	202.0669    	0.007083    	                	;
 NODE_1326302    	229.2661    	0.007083    	                	;
 NODE_1315159    	212.6519    	0.045000    	                	;
 NODE_1336648    	213.3975    	0.000000    	                	;
 NODE_1318274    	211.2042    	0.010833    	                	;
 NODE_1326713    	208.0572    	0.005417    	                	;
 NODE_1337853    	237.9645    	0.000000    	                	;
 NODE_1336041    	238.3955    	0.000000    	                	;
 NODE_1316559    	211.6620    	0.033750    	                	;
 NODE_1321443    	211.8718    	0.013750    	                	;
 NODE_1335175    	211.3681    	0.026667    	                	;
 NODE_1325725    	213.6047    	0.005833    	                	;
 NODE_1317599    	204.4395    	0.007083    	                	;
 NODE_1323741    	217.4929    	0.000000    	                	;
 NODE_1327637    	223.3791    	0.000000    	                	;
 NODE_1318788    	199.8806    	0.000000    	                	;
 NODE_1338590    	178.9104    	0.000000    	                	;
 NODE_1338925    	207.7718    	0.016250    	                	;
 NODE_1315697    	213.3308    	0.010417    	                	;
 NODE_1313074    	219.6671    	0.002917    	                	;
 NODE_1335932    	217.5256    	0.045417    	                	;
 NODE_1312160    	226.7940    	0.001250    	                	;
 NODE_1314768    	222.4160    	0.003750    	                	;
 NODE_1336649    	215.0485    	0.035833    	                	;
 NODE_1314029    	213.9954    	0.018333    	                	;
 NODE_1325125    	215.4742    	0.006250    	                	;
 NODE_1338390    	207.7019    	0.007083    	                	;
 NODE_1314141    	208.8215    	0.011667    	                	;
 NODE_1318005    	208.5797    	0.002500    	                	;
 NODE_1322696    	214.3387    	0.002500    	                	;
 NODE_1325775    	212.6983    	0.057500    	                	;
 NODE_1314762    	224.3217    	0.001667    	                	;
 NODE_1319974    	220.6580    	0.004167    	                	;
 NODE_1312138    	229.1773    	0.012917    	                	;
 NODE_1311930    	223.1001    	0.003333    	                	;
 NODE_1312909    	207.6928    	0.009583    	                	;
 NODE_1313680    	216.7733    	0.003333    	                	;
 NODE_1335786    	210.6663    	0.005000    	                	;
 NODE_1337432    	198.9605    	0.004583    	                	;
 NODE_1320823    	210.4046    	0.006667    	                	;
 NODE_1313673    	217.2840    	0.001667    	                	;
 NODE_1325755    	214.5477    	0.000833    	                	;
 NODE_1325756    	214.3641    	0.007500    	                	;
 NODE_1317027    	220.0989    	0.000417    	                	;
 NODE_1314954    	207.7817    	0.004167    	                	;
 NODE_1337928    	211.6748    	0.007917    	                	;
 NODE_1337710    	215.1487    	0.000000    	                	;
 NODE_1338458    	199.7965    	0.000000    	                	;
 NODE_1318943    	217.7578    	0.000000    	                	;
 NODE_1316917    	214.7370    	0.017917    	                	;
 NODE_1316628    	212.1535    	0.005833    	                	;
 NODE_1326569    	178.4986    	0.003333    	                	;
 NODE_1324682    	214.4223    	0.013333    	                	;
 NODE_1323860    	214.3745    	0.002500    	                	;
 NODE_1323866    	213.7946    	0.004167    	                	;
 NODE_1325165    	222.2267    	0.000417    	                	;
 NODE_1318606    	208.9893    	0.000417    	                	;
 NODE_1325088    	216.5202    	0.024167    	                	;
 NODE_1315030    	222.3936    	0.005417    	                	;
 NODE_1317033    	222.9052    	0.008333    	                	;
 NODE_1314752    	215.4362    	0.005833    	                	;
 NODE_1315193    	215.3589    	0.027083    	                	;
 NODE_1312905    	205.9994    	0.005000    	                	;
 NODE_1335680    	201.7048    	0.010000    	                	;
 NODE_1317093    	205.7626    	0.004167    	                	;
 NODE_1312344    	222.8832    	0.001250    	                	;
 NODE_1337671    	216.4846    	0.000000    	                	;
 NODE_1323365    	213.9698    	0.028750    	                	;
 NODE_1324992    	203.6265    	0.008750    	                	;
 NODE_1314719    	217.2037    	0.005833    	                	;
 NODE_1326795    	194.1944    	0.011250    	                	;
 NODE_1314189    	216.9506    	0.025000    	                	;
 NODE_1326009    	214.1021    	0.017917    	                	;
 NODE_1314626    	225.1461    	0.003750    	                	;
 NODE_1320540    	201.2669    	0.006250    	                	;
 NODE_1323592    	205.1999    	0.003333    	                	;
 NODE_7845725    	197.5912    	0.000000    	                	;
 NODE_1337438    	217.4196    	0.011667    	                	;
 NODE_1313060    	219.2142    	0.006667    	                	;
 NODE_1314371    	219.3117    	0.000000    	                	;
 NODE_1331150    	216.1470    	0.012083    	                	;
 NODE_1320824    	209.8433    	0.131667    	                	;
 NODE_1312154    	225.7748    	0.006250    	                	;
 NODE_1335935    	212.7926    	0.002083    	                	;
 NODE_1314907    	217.0367    	0.002917    	                	;
 NODE_1312056    	219.0955    	0.005000    	                	;
 NODE_1325971    	213.0922    	0.009583    	                	;
 NODE_1315701    	212.0951    	0.000833    	                	;
 NODE_1314191    	216.9507    	0.022917    	                	;
 NODE_1336249    	213.6694    	0.025000    	                	;
 NODE_1324944    	216.1523    	0.000000    	                	;
 NODE_1338396    	205.2512    	0.004167    	                	;
 NODE_1315189    	212.1474    	0.002917    	                	;
 NODE_1315067    	225.1627    	0.000833    	                	;
 NODE_1336416    	188.8266    	0.129583    	                	;
 NODE_1324124    	197.3224    	0.000000    	                	;
 NODE_1315171    	212.9227    	0.002083    	                	;
 NODE_1318880    	209.0259    	0.000000    	                	;
 NODE_1317332    	217.4869    	0.002083    	                	;
 NODE_1336291    	209.3383    	0.003750    	                	;
 NODE_1315217    	211.3696    	0.006667    	                	;
 NODE_1315219    	209.8482    	0.000000    	                	;
 NODE_1314795    	222.9638    	0.007917    	                	;
 NODE_1337026    	220.9248    	0.000000    	                	;
 NODE_1314335    	200.9709    	0.017500    	                	;
 NODE_1330093    	230.7277    	0.000000    	                	;
 NODE_1324349    	201.3544    	0.014167    	                	;
 NODE_1324149    	214.7535    	0.005000    	                	;
 NODE_1326459    	219.0343    	0.020833    	                	;
 NODE_1324052    	210.5150    	0.007083    	                	;
 NODE_1312235    	215.6602    	0.001667    	                	;
 NODE_1321373    	213.8509    	0.000000    	                	;
 NODE_1318596    	215.0899    	0.002083    	                	;
 NODE_1311984    	206.6708    	0.001250    	                	;
 NODE_1323929    	214.8049    	0.000000    	                	;
 NODE_1313216    	207.1493    	0.002917    	                	;
 NODE_1318615    	206.6149    	0.000000    	                	;
 NODE_1312339    	222.3245    	0.002083    	                	;
 NODE_1312351    	225.9089    	0.000000    	                	;
 NODE_1317448    	216.5771    	0.003750    	                	;
 NODE_1317449    	215.7982    	0.004167    	                	;
 NODE_1314196    	215.0021    	0.020417    	                	;
 NODE_1337515    	211.3971    	0.005417    	                	;
 NODE_1319277    	215.0585    	0.028750    	                	;
 NODE_1331141    	191.8952    	0.003333    	                	;
 NODE_1334916    	217.3262    	0.026250    	                	;
 NODE_1315563    	211.6794    	0.005000    	                	;
 NODE_1325710    	212.6721    	0.006250    	                	;
 NODE_1325713    	211.3044    	0.022083    	                	;
 NODE_1321633    	225.5202    	0.003750    	                	;
 NODE_1332984    	214.3094    	0.038750    	                	;
 NODE_1316722    	212.4276    	0.061250    	                	;
 NODE_1327466    	221.0926    	0.000000    	                	;
 NODE_1323990    	221.7407    	0.006667    	                	;
 NODE_1324928    	218.5113    	0.002500    	                	;
 NODE_1338597    	216.7229    	0.001250    	                	;
 NODE_1318296    	202.9638    	0.000000    	                	;
 NODE_1325157    	235.8423    	0.003750    	                	;
 NODE_1321659    	218.0200    	0.002917    	                	;
 NODE_1335749    	221.0179    	0.000000    	                	;
 NODE_1323595    	211.3339    	0.005417    	                	;
 NODE_1317823    	214.5058    	0.005000    	                	;
 NODE_1326535    	196.9080    	0.004167    	                	;
 NODE_1324828    	217.0330    	0.012917    	                	;
 NODE_1313826    	215.2722    	0.115417    	                	;
 NODE_1335460    	203.9441    	0.000000    	                	;
 NODE_1312171    	215.9703    	0.002500    	                	;
 NODE_1325129    	214.3853    	0.006250    	                	;
 NODE_1324647    	204.9510    	0.012917    	                	;
 NODE_1313941    	220.0596    	0.005000    	                	;
 NODE_1313956    	209.7996    	0.002500    	                	;
 NODE_1312364    	219.4088    	0.000417    	                	;
 NODE_1315690    	210.8557    	0.004583    	                	;
 NODE_1336954    	213.4383    	0.003333    	                	;
 NODE_1325765    	211.6874    	0.000000    	                	;
 NODE_1336250    	215.9578    	0.003750    	                	;
 NODE_1314370    	211.1117    	0.005000    	                	;
 NODE_1318603    	213.6200    	0.025000    	                	;
 NODE_1315182    	214.7379    	0.010833    	                	;
 NODE_1312895    	212.9097    	0.001250    	                	;
 NODE_1315262    	223.5991    	0.000833    	                	;
 NODE_1325086    	217.4335    	0.008333    	                	;
 NODE_1327198    	214.8806    	0.004167    	                	;
 NODE_1323670    	209.7910    	0.000000    	                	;
 NODE_1317330    	215.7071    	0.003750    	                	;
 NODE_1320604    	229.3312    	0.000000    	                	;
 NODE_1331451    	211.0028    	0.001667    	                	;
 NODE_1336656    	211.2728    	0.000833    	                	;
 NODE_1313402    	217.7434    	0.007500    	                	;
 NODE_1312025    	226.5379    	0.007500    	                	;
 NODE_1314949    	207.5099    	0.005000    	                	;
 NODE_1321919    	217.3438    	0.009583    	                	;
 NODE_1324536    	191.0360    	0.000000    	                	;
 NODE_1337347    	222.5811    	0.005000    	                	;
 NODE_1313200    	211.9422    	0.004167    	                	;
 NODE_7846256    	213.4670    	0.000000    	                	;
 NODE_1325193    	208.2991    	0.000000    	                	;
 NODE_1323353    	212.6512    	0.000417    	                	;
 NODE_1314861    	208.1445    	0.027083    	                	;
 NODE_1329225    	214.4784    	0.015417    	                	;
 NODE_1311916    	225.2469    	0.008333    	                	;
 NODE_1337709    	204.6870    	0.004167    	                	;
 NODE_1335885    	207.7216    	0.002083    	                	;
 NODE_1319857    	214.9019    	0.001667    	                	;
 NODE_1318766    	214.3166    	0.002500    	                	;
 NODE_1337681    	217.9473    	0.005833    	                	;
 NODE_1312153    	223.5033    	0.003333    	                	;
 NODE_1320304    	222.5980    	0.010000    	                	;
 NODE_1323368    	213.8188    	0.002917    	                	;
 NODE_1319766    	201.3921    	0.007083    	                	;
 NODE_1316900    	217.8022    	0.026667    	                	;
 NODE_1328368    	215.1292    	6.872083    	                	;
 NODE_1338855    	211.4272    	0.000000    	                	;
 NODE_1334152    	204.5478    	0.004167    	                	;
 NODE_1337107    	212.8487    	0.001250    	                	;
 NODE_1313910    	212.9930    	0.037083    	                	;
 NODE_1311881    	219.8738    	0.004167    	                	;
 NODE_1323997    	216.6678    	0.002083    	                	;
 NODE_1323991    	211.4541    	0.000000    	                	;
 NODE_1319572    	222.6253    	0.006250    	                	;
 NODE_1320543    	209.4930    	0.007083    	                	;
 NODE_1335751    	216.2626    	0.002917    	                	;
 NODE_1326718    	206.4938    	0.018333    	                	;
 NODE_1324597    	219.3959    	0.001667    	                	;
 NODE_1316014    	213.3603    	0.000000    	                	;
 NODE_1312229    	215.4038    	0.010833    	                	;
 NODE_1323612    	214.7935    	0.007500    	                	;
 NODE_1317824    	213.8830    	0.004583    	                	;
 NODE_1328494    	181.1121    	0.000000    	                	;
 NODE_1326546    	198.3621    	0.009167    	                	;
 NODE_1328371    	215.2432    	0.015833    	                	;
 NODE_1314729    	216.7804    	0.022917    	                	;
 NODE_1314546    	215.9362    	0.004167    	                	;
 NODE_1317774    	220.9550    	0.002917    	                	;
 NODE_1336277    	218.3787    	0.004167    	                	;
 NODE_1317679    	216.5277    	0.000000    	                	;
 NODE_1325222    	214.7583    	0.000000    	                	;
 NODE_1317961    	217.1099    	0.002500    	                	;
 NODE_1311948    	210.4751    	0.003750    	                	;
 NODE_1318122    	216.7288    	0.015000    	                	;
 NODE_1311955    	212.5641    	0.002917    	                	;